#\#CIF_2.0
# CIF file created by MOFUN using PyCifRW.
data_structure

_symmetry_space_group_name_H-M          'P 1'
_symmetry_Int_Tables_number             1
_cell_length_a                          41.4008
_cell_length_b                          41.4008
_cell_length_c                          41.4008
_cell_angle_alpha                       90.0000
_cell_angle_beta                        90.0000
_cell_angle_gamma                       90.0000
loop_
  _atom_site_label
  _atom_site_type_symbol
  _atom_site_fract_x
  _atom_site_fract_y
  _atom_site_fract_z
  _atom_site_charge
  _atom_site_occupancy
  _atom_site_thermal_displace_type
  _atom_site_b_iso_or_equiv
         Zr1       Zr        0.0600    0.0000    0.0000    0.0       .         .        .        
         Zr2       Zr        0.0000    0.4401    0.0000    0.0       .         .        .        
         Zr3       Zr        0.0000    0.1900    0.2500    0.0       .         .        .        
         Zr4       Zr        0.0000    0.2500    0.3100    0.0       .         .        .        
         Zr5       Zr        0.3100    0.0000    0.2500    0.0       .         .        .        
         Zr6       Zr        0.2500    0.0600    0.2500    0.0       .         .        .        
         Zr7       Zr        0.2500    0.0000    0.1900    0.0       .         .        .        
         Zr8       Zr        0.3100    0.2500    0.0000    0.0       .         .        .        
         Zr9       Zr        0.2500    0.2500    0.0600    0.0       .         .        .        
         O1        O         0.0852    0.0000    0.0477    0.0       1.0000    Biso     1.000    
         O2        O         0.4148    0.0000    0.0477    0.0       1.0000    Biso     1.000    
         O3        O         0.4148    0.0000    0.4524    0.0       1.0000    Biso     1.000    
         O4        O         0.0852    0.0000    0.4524    0.0       1.0000    Biso     1.000    
         O5        O         0.0477    0.0852    0.0000    0.0       1.0000    Biso     1.000    
         O6        O         0.0477    0.4148    0.0000    0.0       1.0000    Biso     1.000    
         O7        O         0.4524    0.4148    0.0000    0.0       1.0000    Biso     1.000    
         O8        O         0.4524    0.0852    0.0000    0.0       1.0000    Biso     1.000    
         O9        O         0.0000    0.0477    0.0852    0.0       1.0000    Biso     1.000    
         O10       O         0.0000    0.0477    0.4148    0.0       1.0000    Biso     1.000    
         O11       O         0.0000    0.4524    0.4148    0.0       1.0000    Biso     1.000    
         O12       O         0.0000    0.4524    0.0852    0.0       1.0000    Biso     1.000    
         O13       O         0.0000    0.0852    0.4524    0.0       1.0000    Biso     1.000    
         O14       O         0.0000    0.4148    0.4524    0.0       1.0000    Biso     1.000    
         O15       O         0.0000    0.4148    0.0477    0.0       1.0000    Biso     1.000    
         O16       O         0.0000    0.0852    0.0477    0.0       1.0000    Biso     1.000    
         O17       O         0.0852    0.0477    0.0000    0.0       1.0000    Biso     1.000    
         O18       O         0.4148    0.0477    0.0000    0.0       1.0000    Biso     1.000    
         O19       O         0.4148    0.4524    0.0000    0.0       1.0000    Biso     1.000    
         O20       O         0.0852    0.4524    0.0000    0.0       1.0000    Biso     1.000    
         O21       O         0.0477    0.0000    0.4148    0.0       1.0000    Biso     1.000    
         O22       O         0.0477    0.0000    0.0852    0.0       1.0000    Biso     1.000    
         O23       O         0.4524    0.0000    0.0852    0.0       1.0000    Biso     1.000    
         O24       O         0.4524    0.0000    0.4148    0.0       1.0000    Biso     1.000    
         O25       O         0.0852    0.2500    0.2977    0.0       1.0000    Biso     1.000    
         O26       O         0.4148    0.2500    0.2977    0.0       1.0000    Biso     1.000    
         O27       O         0.4148    0.2500    0.2023    0.0       1.0000    Biso     1.000    
         O28       O         0.0852    0.2500    0.2023    0.0       1.0000    Biso     1.000    
         O29       O         0.0477    0.3352    0.2500    0.0       1.0000    Biso     1.000    
         O30       O         0.0477    0.1648    0.2500    0.0       1.0000    Biso     1.000    
         O31       O         0.4524    0.1648    0.2500    0.0       1.0000    Biso     1.000    
         O32       O         0.4524    0.3352    0.2500    0.0       1.0000    Biso     1.000    
         O33       O         0.0000    0.2977    0.3352    0.0       1.0000    Biso     1.000    
         O34       O         0.0000    0.2977    0.1648    0.0       1.0000    Biso     1.000    
         O35       O         0.0000    0.2023    0.1648    0.0       1.0000    Biso     1.000    
         O36       O         0.0000    0.2023    0.3352    0.0       1.0000    Biso     1.000    
         O37       O         0.0000    0.3352    0.2023    0.0       1.0000    Biso     1.000    
         O38       O         0.0000    0.1648    0.2023    0.0       1.0000    Biso     1.000    
         O39       O         0.0000    0.1648    0.2977    0.0       1.0000    Biso     1.000    
         O40       O         0.0000    0.3352    0.2977    0.0       1.0000    Biso     1.000    
         O41       O         0.0852    0.2977    0.2500    0.0       1.0000    Biso     1.000    
         O42       O         0.4148    0.2977    0.2500    0.0       1.0000    Biso     1.000    
         O43       O         0.4148    0.2023    0.2500    0.0       1.0000    Biso     1.000    
         O44       O         0.0852    0.2023    0.2500    0.0       1.0000    Biso     1.000    
         O45       O         0.0477    0.2500    0.1648    0.0       1.0000    Biso     1.000    
         O46       O         0.0477    0.2500    0.3352    0.0       1.0000    Biso     1.000    
         O47       O         0.4524    0.2500    0.3352    0.0       1.0000    Biso     1.000    
         O48       O         0.4524    0.2500    0.1648    0.0       1.0000    Biso     1.000    
         O49       O         0.3352    0.0000    0.2977    0.0       1.0000    Biso     1.000    
         O50       O         0.1648    0.0000    0.2977    0.0       1.0000    Biso     1.000    
         O51       O         0.1648    0.0000    0.2023    0.0       1.0000    Biso     1.000    
         O52       O         0.3352    0.0000    0.2023    0.0       1.0000    Biso     1.000    
         O53       O         0.2977    0.0852    0.2500    0.0       1.0000    Biso     1.000    
         O54       O         0.2977    0.4148    0.2500    0.0       1.0000    Biso     1.000    
         O55       O         0.2023    0.4148    0.2500    0.0       1.0000    Biso     1.000    
         O56       O         0.2023    0.0852    0.2500    0.0       1.0000    Biso     1.000    
         O57       O         0.2500    0.0477    0.3352    0.0       1.0000    Biso     1.000    
         O58       O         0.2500    0.0477    0.1648    0.0       1.0000    Biso     1.000    
         O59       O         0.2500    0.4524    0.1648    0.0       1.0000    Biso     1.000    
         O60       O         0.2500    0.4524    0.3352    0.0       1.0000    Biso     1.000    
         O61       O         0.2500    0.0852    0.2023    0.0       1.0000    Biso     1.000    
         O62       O         0.2500    0.4148    0.2023    0.0       1.0000    Biso     1.000    
         O63       O         0.2500    0.4148    0.2977    0.0       1.0000    Biso     1.000    
         O64       O         0.2500    0.0852    0.2977    0.0       1.0000    Biso     1.000    
         O65       O         0.3352    0.0477    0.2500    0.0       1.0000    Biso     1.000    
         O66       O         0.1648    0.0477    0.2500    0.0       1.0000    Biso     1.000    
         O67       O         0.1648    0.4524    0.2500    0.0       1.0000    Biso     1.000    
         O68       O         0.3352    0.4524    0.2500    0.0       1.0000    Biso     1.000    
         O69       O         0.2977    0.0000    0.1648    0.0       1.0000    Biso     1.000    
         O70       O         0.2977    0.0000    0.3352    0.0       1.0000    Biso     1.000    
         O71       O         0.2023    0.0000    0.3352    0.0       1.0000    Biso     1.000    
         O72       O         0.2023    0.0000    0.1648    0.0       1.0000    Biso     1.000    
         O73       O         0.3352    0.2500    0.0477    0.0       1.0000    Biso     1.000    
         O74       O         0.1648    0.2500    0.0477    0.0       1.0000    Biso     1.000    
         O75       O         0.1648    0.2500    0.4524    0.0       1.0000    Biso     1.000    
         O76       O         0.3352    0.2500    0.4524    0.0       1.0000    Biso     1.000    
         O77       O         0.2977    0.3352    0.0000    0.0       1.0000    Biso     1.000    
         O78       O         0.2977    0.1648    0.0000    0.0       1.0000    Biso     1.000    
         O79       O         0.2023    0.1648    0.0000    0.0       1.0000    Biso     1.000    
         O80       O         0.2023    0.3352    0.0000    0.0       1.0000    Biso     1.000    
         O81       O         0.2500    0.2977    0.0852    0.0       1.0000    Biso     1.000    
         O82       O         0.2500    0.2977    0.4148    0.0       1.0000    Biso     1.000    
         O83       O         0.2500    0.2023    0.4148    0.0       1.0000    Biso     1.000    
         O84       O         0.2500    0.2023    0.0852    0.0       1.0000    Biso     1.000    
         O85       O         0.2500    0.3352    0.4524    0.0       1.0000    Biso     1.000    
         O86       O         0.2500    0.1648    0.4524    0.0       1.0000    Biso     1.000    
         O87       O         0.2500    0.1648    0.0477    0.0       1.0000    Biso     1.000    
         O88       O         0.2500    0.3352    0.0477    0.0       1.0000    Biso     1.000    
         O89       O         0.3352    0.2977    0.0000    0.0       1.0000    Biso     1.000    
         O90       O         0.1648    0.2977    0.0000    0.0       1.0000    Biso     1.000    
         O91       O         0.1648    0.2023    0.0000    0.0       1.0000    Biso     1.000    
         O92       O         0.3352    0.2023    0.0000    0.0       1.0000    Biso     1.000    
         O93       O         0.2977    0.2500    0.4148    0.0       1.0000    Biso     1.000    
         O94       O         0.2977    0.2500    0.0852    0.0       1.0000    Biso     1.000    
         O95       O         0.2023    0.2500    0.0852    0.0       1.0000    Biso     1.000    
         O96       O         0.2023    0.2500    0.4148    0.0       1.0000    Biso     1.000    
         O97       O         0.0280    0.4720    0.4720    0.0       .         .        .        
         O98       O         0.4720    0.0280    0.4720    0.0       .         .        .        
         O99       O         0.4720    0.4720    0.0280    0.0       .         .        .        
         O100      O         0.0280    0.0280    0.0280    0.0       .         .        .        
         O101      O         0.4720    0.0280    0.0280    0.0       .         .        .        
         O102      O         0.0280    0.4720    0.0280    0.0       .         .        .        
         O103      O         0.4720    0.4720    0.4720    0.0       .         .        .        
         O104      O         0.0280    0.0280    0.4720    0.0       .         .        .        
         O105      O         0.0280    0.2220    0.2220    0.0       .         .        .        
         O106      O         0.4720    0.2780    0.2220    0.0       .         .        .        
         O107      O         0.4720    0.2220    0.2780    0.0       .         .        .        
         O108      O         0.0280    0.2780    0.2780    0.0       .         .        .        
         O109      O         0.4720    0.2780    0.2780    0.0       .         .        .        
         O110      O         0.0280    0.2220    0.2780    0.0       .         .        .        
         O111      O         0.4720    0.2220    0.2220    0.0       .         .        .        
         O112      O         0.0280    0.2780    0.2220    0.0       .         .        .        
         O113      O         0.2780    0.4720    0.2220    0.0       .         .        .        
         O114      O         0.2220    0.0280    0.2220    0.0       .         .        .        
         O115      O         0.2220    0.4720    0.2780    0.0       .         .        .        
         O116      O         0.2780    0.0280    0.2780    0.0       .         .        .        
         O117      O         0.2220    0.0280    0.2780    0.0       .         .        .        
         O118      O         0.2780    0.4720    0.2780    0.0       .         .        .        
         O119      O         0.2220    0.4720    0.2220    0.0       .         .        .        
         O120      O         0.2780    0.0280    0.2220    0.0       .         .        .        
         O121      O         0.2780    0.2220    0.4720    0.0       .         .        .        
         O122      O         0.2220    0.2780    0.4720    0.0       .         .        .        
         O123      O         0.2220    0.2220    0.0280    0.0       .         .        .        
         O124      O         0.2780    0.2780    0.0280    0.0       .         .        .        
         O125      O         0.2220    0.2780    0.0280    0.0       .         .        .        
         O126      O         0.2780    0.2220    0.0280    0.0       .         .        .        
         O127      O         0.2220    0.2220    0.4720    0.0       .         .        .        
         O128      O         0.2780    0.2780    0.4720    0.0       .         .        .        
         C1        C         0.0768    0.0000    0.4232    0.0       1.0000    Biso     1.000    
         C2        C         0.4232    0.0000    0.4232    0.0       1.0000    Biso     1.000    
         C3        C         0.4232    0.0000    0.0768    0.0       1.0000    Biso     1.000    
         C4        C         0.0768    0.0000    0.0768    0.0       1.0000    Biso     1.000    
         C5        C         0.4232    0.0768    0.0000    0.0       1.0000    Biso     1.000    
         C6        C         0.4232    0.4232    0.0000    0.0       1.0000    Biso     1.000    
         C7        C         0.0768    0.4232    0.0000    0.0       1.0000    Biso     1.000    
         C8        C         0.0768    0.0768    0.0000    0.0       1.0000    Biso     1.000    
         C9        C         0.0000    0.4232    0.0768    0.0       1.0000    Biso     1.000    
         C10       C         0.0000    0.4232    0.4232    0.0       1.0000    Biso     1.000    
         C11       C         0.0000    0.0768    0.4232    0.0       1.0000    Biso     1.000    
         C12       C         0.0000    0.0768    0.0768    0.0       1.0000    Biso     1.000    
         C13       C         0.0768    0.2500    0.1732    0.0       1.0000    Biso     1.000    
         C14       C         0.4232    0.2500    0.1732    0.0       1.0000    Biso     1.000    
         C15       C         0.4232    0.2500    0.3268    0.0       1.0000    Biso     1.000    
         C16       C         0.0768    0.2500    0.3268    0.0       1.0000    Biso     1.000    
         C17       C         0.4232    0.3268    0.2500    0.0       1.0000    Biso     1.000    
         C18       C         0.4232    0.1732    0.2500    0.0       1.0000    Biso     1.000    
         C19       C         0.0768    0.1732    0.2500    0.0       1.0000    Biso     1.000    
         C20       C         0.0768    0.3268    0.2500    0.0       1.0000    Biso     1.000    
         C21       C         0.0000    0.1732    0.3268    0.0       1.0000    Biso     1.000    
         C22       C         0.0000    0.1732    0.1732    0.0       1.0000    Biso     1.000    
         C23       C         0.0000    0.3268    0.1732    0.0       1.0000    Biso     1.000    
         C24       C         0.0000    0.3268    0.3268    0.0       1.0000    Biso     1.000    
         C25       C         0.3268    0.0000    0.1732    0.0       1.0000    Biso     1.000    
         C26       C         0.1732    0.0000    0.1732    0.0       1.0000    Biso     1.000    
         C27       C         0.1732    0.0000    0.3268    0.0       1.0000    Biso     1.000    
         C28       C         0.3268    0.0000    0.3268    0.0       1.0000    Biso     1.000    
         C29       C         0.1732    0.0768    0.2500    0.0       1.0000    Biso     1.000    
         C30       C         0.1732    0.4232    0.2500    0.0       1.0000    Biso     1.000    
         C31       C         0.3268    0.4232    0.2500    0.0       1.0000    Biso     1.000    
         C32       C         0.3268    0.0768    0.2500    0.0       1.0000    Biso     1.000    
         C33       C         0.2500    0.4232    0.3268    0.0       1.0000    Biso     1.000    
         C34       C         0.2500    0.4232    0.1732    0.0       1.0000    Biso     1.000    
         C35       C         0.2500    0.0768    0.1732    0.0       1.0000    Biso     1.000    
         C36       C         0.2500    0.0768    0.3268    0.0       1.0000    Biso     1.000    
         C37       C         0.3268    0.2500    0.4232    0.0       1.0000    Biso     1.000    
         C38       C         0.1732    0.2500    0.4232    0.0       1.0000    Biso     1.000    
         C39       C         0.1732    0.2500    0.0768    0.0       1.0000    Biso     1.000    
         C40       C         0.3268    0.2500    0.0768    0.0       1.0000    Biso     1.000    
         C41       C         0.1732    0.3268    0.0000    0.0       1.0000    Biso     1.000    
         C42       C         0.1732    0.1732    0.0000    0.0       1.0000    Biso     1.000    
         C43       C         0.3268    0.1732    0.0000    0.0       1.0000    Biso     1.000    
         C44       C         0.3268    0.3268    0.0000    0.0       1.0000    Biso     1.000    
         C45       C         0.2500    0.1732    0.0768    0.0       1.0000    Biso     1.000    
         C46       C         0.2500    0.1732    0.4232    0.0       1.0000    Biso     1.000    
         C47       C         0.2500    0.3268    0.4232    0.0       1.0000    Biso     1.000    
         C48       C         0.2500    0.3268    0.0768    0.0       1.0000    Biso     1.000    
         C49       C         0.1025    0.0000    0.1025    0.0       1.0000    Biso     1.000    
         C50       C         0.3975    0.0000    0.1025    0.0       1.0000    Biso     1.000    
         C51       C         0.3975    0.0000    0.3975    0.0       1.0000    Biso     1.000    
         C52       C         0.1025    0.0000    0.3975    0.0       1.0000    Biso     1.000    
         C53       C         0.1025    0.1025    0.0000    0.0       1.0000    Biso     1.000    
         C54       C         0.1025    0.3975    0.0000    0.0       1.0000    Biso     1.000    
         C55       C         0.3975    0.3975    0.0000    0.0       1.0000    Biso     1.000    
         C56       C         0.3975    0.1025    0.0000    0.0       1.0000    Biso     1.000    
         C57       C         0.0000    0.1025    0.1025    0.0       1.0000    Biso     1.000    
         C58       C         0.0000    0.1025    0.3975    0.0       1.0000    Biso     1.000    
         C59       C         0.0000    0.3975    0.3975    0.0       1.0000    Biso     1.000    
         C60       C         0.0000    0.3975    0.1025    0.0       1.0000    Biso     1.000    
         C61       C         0.1025    0.2500    0.3525    0.0       1.0000    Biso     1.000    
         C62       C         0.3975    0.2500    0.3525    0.0       1.0000    Biso     1.000    
         C63       C         0.3975    0.2500    0.1475    0.0       1.0000    Biso     1.000    
         C64       C         0.1025    0.2500    0.1475    0.0       1.0000    Biso     1.000    
         C65       C         0.1025    0.3525    0.2500    0.0       1.0000    Biso     1.000    
         C66       C         0.1025    0.1475    0.2500    0.0       1.0000    Biso     1.000    
         C67       C         0.3975    0.1475    0.2500    0.0       1.0000    Biso     1.000    
         C68       C         0.3975    0.3525    0.2500    0.0       1.0000    Biso     1.000    
         C69       C         0.0000    0.3525    0.3525    0.0       1.0000    Biso     1.000    
         C70       C         0.0000    0.3525    0.1475    0.0       1.0000    Biso     1.000    
         C71       C         0.0000    0.1475    0.1475    0.0       1.0000    Biso     1.000    
         C72       C         0.0000    0.1475    0.3525    0.0       1.0000    Biso     1.000    
         C73       C         0.3525    0.0000    0.3525    0.0       1.0000    Biso     1.000    
         C74       C         0.1475    0.0000    0.3525    0.0       1.0000    Biso     1.000    
         C75       C         0.1475    0.0000    0.1475    0.0       1.0000    Biso     1.000    
         C76       C         0.3525    0.0000    0.1475    0.0       1.0000    Biso     1.000    
         C77       C         0.3525    0.1025    0.2500    0.0       1.0000    Biso     1.000    
         C78       C         0.3525    0.3975    0.2500    0.0       1.0000    Biso     1.000    
         C79       C         0.1475    0.3975    0.2500    0.0       1.0000    Biso     1.000    
         C80       C         0.1475    0.1025    0.2500    0.0       1.0000    Biso     1.000    
         C81       C         0.2500    0.1025    0.3525    0.0       1.0000    Biso     1.000    
         C82       C         0.2500    0.1025    0.1475    0.0       1.0000    Biso     1.000    
         C83       C         0.2500    0.3975    0.1475    0.0       1.0000    Biso     1.000    
         C84       C         0.2500    0.3975    0.3525    0.0       1.0000    Biso     1.000    
         C85       C         0.3525    0.2500    0.1025    0.0       1.0000    Biso     1.000    
         C86       C         0.1475    0.2500    0.1025    0.0       1.0000    Biso     1.000    
         C87       C         0.1475    0.2500    0.3975    0.0       1.0000    Biso     1.000    
         C88       C         0.3525    0.2500    0.3975    0.0       1.0000    Biso     1.000    
         C89       C         0.3525    0.3525    0.0000    0.0       1.0000    Biso     1.000    
         C90       C         0.3525    0.1475    0.0000    0.0       1.0000    Biso     1.000    
         C91       C         0.1475    0.1475    0.0000    0.0       1.0000    Biso     1.000    
         C92       C         0.1475    0.3525    0.0000    0.0       1.0000    Biso     1.000    
         C93       C         0.2500    0.3525    0.1025    0.0       1.0000    Biso     1.000    
         C94       C         0.2500    0.3525    0.3975    0.0       1.0000    Biso     1.000    
         C95       C         0.2500    0.1475    0.3975    0.0       1.0000    Biso     1.000    
         C96       C         0.2500    0.1475    0.1025    0.0       1.0000    Biso     1.000    
         C97       C         0.1337    0.0000    0.0922    0.0       1.0000    Biso     1.000    
         C98       C         0.3663    0.0000    0.0922    0.0       1.0000    Biso     1.000    
         C99       C         0.3663    0.0000    0.4078    0.0       1.0000    Biso     1.000    
         C100      C         0.1337    0.0000    0.4078    0.0       1.0000    Biso     1.000    
         C101      C         0.0922    0.1337    0.0000    0.0       1.0000    Biso     1.000    
         C102      C         0.0922    0.3663    0.0000    0.0       1.0000    Biso     1.000    
         C103      C         0.4078    0.3663    0.0000    0.0       1.0000    Biso     1.000    
         C104      C         0.4078    0.1337    0.0000    0.0       1.0000    Biso     1.000    
         C105      C         0.0000    0.0922    0.1337    0.0       1.0000    Biso     1.000    
         C106      C         0.0000    0.0922    0.3663    0.0       1.0000    Biso     1.000    
         C107      C         0.0000    0.4078    0.3663    0.0       1.0000    Biso     1.000    
         C108      C         0.0000    0.4078    0.1337    0.0       1.0000    Biso     1.000    
         C109      C         0.0000    0.1337    0.4078    0.0       1.0000    Biso     1.000    
         C110      C         0.0000    0.3663    0.4078    0.0       1.0000    Biso     1.000    
         C111      C         0.0000    0.3663    0.0922    0.0       1.0000    Biso     1.000    
         C112      C         0.0000    0.1337    0.0922    0.0       1.0000    Biso     1.000    
         C113      C         0.1337    0.0922    0.0000    0.0       1.0000    Biso     1.000    
         C114      C         0.3663    0.0922    0.0000    0.0       1.0000    Biso     1.000    
         C115      C         0.3663    0.4078    0.0000    0.0       1.0000    Biso     1.000    
         C116      C         0.1337    0.4078    0.0000    0.0       1.0000    Biso     1.000    
         C117      C         0.0922    0.0000    0.3663    0.0       1.0000    Biso     1.000    
         C118      C         0.0922    0.0000    0.1337    0.0       1.0000    Biso     1.000    
         C119      C         0.4078    0.0000    0.1337    0.0       1.0000    Biso     1.000    
         C120      C         0.4078    0.0000    0.3663    0.0       1.0000    Biso     1.000    
         C121      C         0.1337    0.2500    0.3422    0.0       1.0000    Biso     1.000    
         C122      C         0.3663    0.2500    0.3422    0.0       1.0000    Biso     1.000    
         C123      C         0.3663    0.2500    0.1578    0.0       1.0000    Biso     1.000    
         C124      C         0.1337    0.2500    0.1578    0.0       1.0000    Biso     1.000    
         C125      C         0.0922    0.3838    0.2500    0.0       1.0000    Biso     1.000    
         C126      C         0.0922    0.1163    0.2500    0.0       1.0000    Biso     1.000    
         C127      C         0.4078    0.1163    0.2500    0.0       1.0000    Biso     1.000    
         C128      C         0.4078    0.3838    0.2500    0.0       1.0000    Biso     1.000    
         C129      C         0.0000    0.3422    0.3838    0.0       1.0000    Biso     1.000    
         C130      C         0.0000    0.3422    0.1163    0.0       1.0000    Biso     1.000    
         C131      C         0.0000    0.1578    0.1163    0.0       1.0000    Biso     1.000    
         C132      C         0.0000    0.1578    0.3838    0.0       1.0000    Biso     1.000    
         C133      C         0.0000    0.3838    0.1578    0.0       1.0000    Biso     1.000    
         C134      C         0.0000    0.1163    0.1578    0.0       1.0000    Biso     1.000    
         C135      C         0.0000    0.1163    0.3422    0.0       1.0000    Biso     1.000    
         C136      C         0.0000    0.3838    0.3422    0.0       1.0000    Biso     1.000    
         C137      C         0.1337    0.3422    0.2500    0.0       1.0000    Biso     1.000    
         C138      C         0.3663    0.3422    0.2500    0.0       1.0000    Biso     1.000    
         C139      C         0.3663    0.1578    0.2500    0.0       1.0000    Biso     1.000    
         C140      C         0.1337    0.1578    0.2500    0.0       1.0000    Biso     1.000    
         C141      C         0.0922    0.2500    0.1163    0.0       1.0000    Biso     1.000    
         C142      C         0.0922    0.2500    0.3838    0.0       1.0000    Biso     1.000    
         C143      C         0.4078    0.2500    0.3838    0.0       1.0000    Biso     1.000    
         C144      C         0.4078    0.2500    0.1163    0.0       1.0000    Biso     1.000    
         C145      C         0.3838    0.0000    0.3422    0.0       1.0000    Biso     1.000    
         C146      C         0.1163    0.0000    0.3422    0.0       1.0000    Biso     1.000    
         C147      C         0.1163    0.0000    0.1578    0.0       1.0000    Biso     1.000    
         C148      C         0.3838    0.0000    0.1578    0.0       1.0000    Biso     1.000    
         C149      C         0.3422    0.1337    0.2500    0.0       1.0000    Biso     1.000    
         C150      C         0.3422    0.3663    0.2500    0.0       1.0000    Biso     1.000    
         C151      C         0.1578    0.3663    0.2500    0.0       1.0000    Biso     1.000    
         C152      C         0.1578    0.1337    0.2500    0.0       1.0000    Biso     1.000    
         C153      C         0.2500    0.0922    0.3838    0.0       1.0000    Biso     1.000    
         C154      C         0.2500    0.0922    0.1163    0.0       1.0000    Biso     1.000    
         C155      C         0.2500    0.4078    0.1163    0.0       1.0000    Biso     1.000    
         C156      C         0.2500    0.4078    0.3838    0.0       1.0000    Biso     1.000    
         C157      C         0.2500    0.1337    0.1578    0.0       1.0000    Biso     1.000    
         C158      C         0.2500    0.3663    0.1578    0.0       1.0000    Biso     1.000    
         C159      C         0.2500    0.3663    0.3422    0.0       1.0000    Biso     1.000    
         C160      C         0.2500    0.1337    0.3422    0.0       1.0000    Biso     1.000    
         C161      C         0.3838    0.0922    0.2500    0.0       1.0000    Biso     1.000    
         C162      C         0.1163    0.0922    0.2500    0.0       1.0000    Biso     1.000    
         C163      C         0.1163    0.4078    0.2500    0.0       1.0000    Biso     1.000    
         C164      C         0.3838    0.4078    0.2500    0.0       1.0000    Biso     1.000    
         C165      C         0.3422    0.0000    0.1163    0.0       1.0000    Biso     1.000    
         C166      C         0.3422    0.0000    0.3838    0.0       1.0000    Biso     1.000    
         C167      C         0.1578    0.0000    0.3838    0.0       1.0000    Biso     1.000    
         C168      C         0.1578    0.0000    0.1163    0.0       1.0000    Biso     1.000    
         C169      C         0.3838    0.2500    0.0922    0.0       1.0000    Biso     1.000    
         C170      C         0.1163    0.2500    0.0922    0.0       1.0000    Biso     1.000    
         C171      C         0.1163    0.2500    0.4078    0.0       1.0000    Biso     1.000    
         C172      C         0.3838    0.2500    0.4078    0.0       1.0000    Biso     1.000    
         C173      C         0.3422    0.3838    0.0000    0.0       1.0000    Biso     1.000    
         C174      C         0.3422    0.1163    0.0000    0.0       1.0000    Biso     1.000    
         C175      C         0.1578    0.1163    0.0000    0.0       1.0000    Biso     1.000    
         C176      C         0.1578    0.3838    0.0000    0.0       1.0000    Biso     1.000    
         C177      C         0.2500    0.3422    0.1337    0.0       1.0000    Biso     1.000    
         C178      C         0.2500    0.3422    0.3663    0.0       1.0000    Biso     1.000    
         C179      C         0.2500    0.1578    0.3663    0.0       1.0000    Biso     1.000    
         C180      C         0.2500    0.1578    0.1337    0.0       1.0000    Biso     1.000    
         C181      C         0.2500    0.3838    0.4078    0.0       1.0000    Biso     1.000    
         C182      C         0.2500    0.1163    0.4078    0.0       1.0000    Biso     1.000    
         C183      C         0.2500    0.1163    0.0922    0.0       1.0000    Biso     1.000    
         C184      C         0.2500    0.3838    0.0922    0.0       1.0000    Biso     1.000    
         C185      C         0.3838    0.3422    0.0000    0.0       1.0000    Biso     1.000    
         C186      C         0.1163    0.3422    0.0000    0.0       1.0000    Biso     1.000    
         C187      C         0.1163    0.1578    0.0000    0.0       1.0000    Biso     1.000    
         C188      C         0.3838    0.1578    0.0000    0.0       1.0000    Biso     1.000    
         C189      C         0.3422    0.2500    0.3663    0.0       1.0000    Biso     1.000    
         C190      C         0.3422    0.2500    0.1337    0.0       1.0000    Biso     1.000    
         C191      C         0.1578    0.2500    0.1337    0.0       1.0000    Biso     1.000    
         C192      C         0.1578    0.2500    0.3663    0.0       1.0000    Biso     1.000    
         H1        H         0.1395    0.0000    0.0679    0.0       1.0000    Biso     1.000    
         H2        H         0.3605    0.0000    0.0679    0.0       1.0000    Biso     1.000    
         H3        H         0.3605    0.0000    0.4321    0.0       1.0000    Biso     1.000    
         H4        H         0.1395    0.0000    0.4321    0.0       1.0000    Biso     1.000    
         H5        H         0.0679    0.1395    0.0000    0.0       1.0000    Biso     1.000    
         H6        H         0.0679    0.3605    0.0000    0.0       1.0000    Biso     1.000    
         H7        H         0.4321    0.3605    0.0000    0.0       1.0000    Biso     1.000    
         H8        H         0.4321    0.1395    0.0000    0.0       1.0000    Biso     1.000    
         H9        H         0.0000    0.0679    0.1395    0.0       1.0000    Biso     1.000    
         H10       H         0.0000    0.0679    0.3605    0.0       1.0000    Biso     1.000    
         H11       H         0.0000    0.4321    0.3605    0.0       1.0000    Biso     1.000    
         H12       H         0.0000    0.4321    0.1395    0.0       1.0000    Biso     1.000    
         H13       H         0.0000    0.1395    0.4321    0.0       1.0000    Biso     1.000    
         H14       H         0.0000    0.3605    0.4321    0.0       1.0000    Biso     1.000    
         H15       H         0.0000    0.3605    0.0679    0.0       1.0000    Biso     1.000    
         H16       H         0.0000    0.1395    0.0679    0.0       1.0000    Biso     1.000    
         H17       H         0.1395    0.0679    0.0000    0.0       1.0000    Biso     1.000    
         H18       H         0.3605    0.0679    0.0000    0.0       1.0000    Biso     1.000    
         H19       H         0.3605    0.4321    0.0000    0.0       1.0000    Biso     1.000    
         H20       H         0.1395    0.4321    0.0000    0.0       1.0000    Biso     1.000    
         H21       H         0.0679    0.0000    0.3605    0.0       1.0000    Biso     1.000    
         H22       H         0.0679    0.0000    0.1395    0.0       1.0000    Biso     1.000    
         H23       H         0.4321    0.0000    0.1395    0.0       1.0000    Biso     1.000    
         H24       H         0.4321    0.0000    0.3605    0.0       1.0000    Biso     1.000    
         H25       H         0.1395    0.2500    0.3179    0.0       1.0000    Biso     1.000    
         H26       H         0.3605    0.2500    0.3179    0.0       1.0000    Biso     1.000    
         H27       H         0.3605    0.2500    0.1821    0.0       1.0000    Biso     1.000    
         H28       H         0.1395    0.2500    0.1821    0.0       1.0000    Biso     1.000    
         H29       H         0.0679    0.3895    0.2500    0.0       1.0000    Biso     1.000    
         H30       H         0.0679    0.1105    0.2500    0.0       1.0000    Biso     1.000    
         H31       H         0.4321    0.1105    0.2500    0.0       1.0000    Biso     1.000    
         H32       H         0.4321    0.3895    0.2500    0.0       1.0000    Biso     1.000    
         H33       H         0.0000    0.3179    0.3895    0.0       1.0000    Biso     1.000    
         H34       H         0.0000    0.3179    0.1105    0.0       1.0000    Biso     1.000    
         H35       H         0.0000    0.1821    0.1105    0.0       1.0000    Biso     1.000    
         H36       H         0.0000    0.1821    0.3895    0.0       1.0000    Biso     1.000    
         H37       H         0.0000    0.3895    0.1821    0.0       1.0000    Biso     1.000    
         H38       H         0.0000    0.1105    0.1821    0.0       1.0000    Biso     1.000    
         H39       H         0.0000    0.1105    0.3179    0.0       1.0000    Biso     1.000    
         H40       H         0.0000    0.3895    0.3179    0.0       1.0000    Biso     1.000    
         H41       H         0.1395    0.3179    0.2500    0.0       1.0000    Biso     1.000    
         H42       H         0.3605    0.3179    0.2500    0.0       1.0000    Biso     1.000    
         H43       H         0.3605    0.1821    0.2500    0.0       1.0000    Biso     1.000    
         H44       H         0.1395    0.1821    0.2500    0.0       1.0000    Biso     1.000    
         H45       H         0.0679    0.2500    0.1105    0.0       1.0000    Biso     1.000    
         H46       H         0.0679    0.2500    0.3895    0.0       1.0000    Biso     1.000    
         H47       H         0.4321    0.2500    0.3895    0.0       1.0000    Biso     1.000    
         H48       H         0.4321    0.2500    0.1105    0.0       1.0000    Biso     1.000    
         H49       H         0.3895    0.0000    0.3179    0.0       1.0000    Biso     1.000    
         H50       H         0.1105    0.0000    0.3179    0.0       1.0000    Biso     1.000    
         H51       H         0.1105    0.0000    0.1821    0.0       1.0000    Biso     1.000    
         H52       H         0.3895    0.0000    0.1821    0.0       1.0000    Biso     1.000    
         H53       H         0.3179    0.1395    0.2500    0.0       1.0000    Biso     1.000    
         H54       H         0.3179    0.3605    0.2500    0.0       1.0000    Biso     1.000    
         H55       H         0.1821    0.3605    0.2500    0.0       1.0000    Biso     1.000    
         H56       H         0.1821    0.1395    0.2500    0.0       1.0000    Biso     1.000    
         H57       H         0.2500    0.0679    0.3895    0.0       1.0000    Biso     1.000    
         H58       H         0.2500    0.0679    0.1105    0.0       1.0000    Biso     1.000    
         H59       H         0.2500    0.4321    0.1105    0.0       1.0000    Biso     1.000    
         H60       H         0.2500    0.4321    0.3895    0.0       1.0000    Biso     1.000    
         H61       H         0.2500    0.1395    0.1821    0.0       1.0000    Biso     1.000    
         H62       H         0.2500    0.3605    0.1821    0.0       1.0000    Biso     1.000    
         H63       H         0.2500    0.3605    0.3179    0.0       1.0000    Biso     1.000    
         H64       H         0.2500    0.1395    0.3179    0.0       1.0000    Biso     1.000    
         H65       H         0.3895    0.0679    0.2500    0.0       1.0000    Biso     1.000    
         H66       H         0.1105    0.0679    0.2500    0.0       1.0000    Biso     1.000    
         H67       H         0.1105    0.4321    0.2500    0.0       1.0000    Biso     1.000    
         H68       H         0.3895    0.4321    0.2500    0.0       1.0000    Biso     1.000    
         H69       H         0.3179    0.0000    0.1105    0.0       1.0000    Biso     1.000    
         H70       H         0.3179    0.0000    0.3895    0.0       1.0000    Biso     1.000    
         H71       H         0.1821    0.0000    0.3895    0.0       1.0000    Biso     1.000    
         H72       H         0.1821    0.0000    0.1105    0.0       1.0000    Biso     1.000    
         H73       H         0.3895    0.2500    0.0679    0.0       1.0000    Biso     1.000    
         H74       H         0.1105    0.2500    0.0679    0.0       1.0000    Biso     1.000    
         H75       H         0.1105    0.2500    0.4321    0.0       1.0000    Biso     1.000    
         H76       H         0.3895    0.2500    0.4321    0.0       1.0000    Biso     1.000    
         H77       H         0.3179    0.3895    0.0000    0.0       1.0000    Biso     1.000    
         H78       H         0.3179    0.1105    0.0000    0.0       1.0000    Biso     1.000    
         H79       H         0.1821    0.1105    0.0000    0.0       1.0000    Biso     1.000    
         H80       H         0.1821    0.3895    0.0000    0.0       1.0000    Biso     1.000    
         H81       H         0.2500    0.3179    0.1395    0.0       1.0000    Biso     1.000    
         H82       H         0.2500    0.3179    0.3605    0.0       1.0000    Biso     1.000    
         H83       H         0.2500    0.1821    0.3605    0.0       1.0000    Biso     1.000    
         H84       H         0.2500    0.1821    0.1395    0.0       1.0000    Biso     1.000    
         H85       H         0.2500    0.3895    0.4321    0.0       1.0000    Biso     1.000    
         H86       H         0.2500    0.1105    0.4321    0.0       1.0000    Biso     1.000    
         H87       H         0.2500    0.1105    0.0679    0.0       1.0000    Biso     1.000    
         H88       H         0.2500    0.3895    0.0679    0.0       1.0000    Biso     1.000    
         H89       H         0.3895    0.3179    0.0000    0.0       1.0000    Biso     1.000    
         H90       H         0.1105    0.3179    0.0000    0.0       1.0000    Biso     1.000    
         H91       H         0.1105    0.1821    0.0000    0.0       1.0000    Biso     1.000    
         H92       H         0.3895    0.1821    0.0000    0.0       1.0000    Biso     1.000    
         H93       H         0.3179    0.2500    0.3605    0.0       1.0000    Biso     1.000    
         H94       H         0.3179    0.2500    0.1395    0.0       1.0000    Biso     1.000    
         H95       H         0.1821    0.2500    0.1395    0.0       1.0000    Biso     1.000    
         H96       H         0.1821    0.2500    0.3605    0.0       1.0000    Biso     1.000    
         Zr10      Zr        0.0000    0.5599    0.0000    0.0       .         .        .        
         Zr11      Zr        0.0000    0.5000    0.4401    0.0       .         .        .        
         Zr12      Zr        0.0600    0.7500    0.2500    0.0       .         .        .        
         Zr13      Zr        0.4401    0.7500    0.2500    0.0       .         .        .        
         Zr14      Zr        0.0000    0.8099    0.2500    0.0       .         .        .        
         Zr15      Zr        0.0000    0.7500    0.3100    0.0       .         .        .        
         Zr16      Zr        0.3100    0.5000    0.2500    0.0       .         .        .        
         Zr17      Zr        0.1900    0.5000    0.2500    0.0       .         .        .        
         Zr18      Zr        0.2500    0.5000    0.1900    0.0       .         .        .        
         Zr19      Zr        0.1900    0.7500    0.0000    0.0       .         .        .        
         Zr20      Zr        0.2500    0.8099    0.0000    0.0       .         .        .        
         Zr21      Zr        0.2500    0.7500    0.4401    0.0       .         .        .        
         O129      O         0.0852    0.5000    0.0477    0.0       1.0000    Biso     1.000    
         O130      O         0.4148    0.5000    0.0477    0.0       1.0000    Biso     1.000    
         O131      O         0.4148    0.5000    0.4524    0.0       1.0000    Biso     1.000    
         O132      O         0.0852    0.5000    0.4524    0.0       1.0000    Biso     1.000    
         O133      O         0.0477    0.5852    0.0000    0.0       1.0000    Biso     1.000    
         O134      O         0.0477    0.9148    0.0000    0.0       1.0000    Biso     1.000    
         O135      O         0.4524    0.9148    0.0000    0.0       1.0000    Biso     1.000    
         O136      O         0.4524    0.5852    0.0000    0.0       1.0000    Biso     1.000    
         O137      O         0.0000    0.5477    0.0852    0.0       1.0000    Biso     1.000    
         O138      O         0.0000    0.5477    0.4148    0.0       1.0000    Biso     1.000    
         O139      O         0.0000    0.9524    0.4148    0.0       1.0000    Biso     1.000    
         O140      O         0.0000    0.9524    0.0852    0.0       1.0000    Biso     1.000    
         O141      O         0.0000    0.5852    0.4524    0.0       1.0000    Biso     1.000    
         O142      O         0.0000    0.9148    0.4524    0.0       1.0000    Biso     1.000    
         O143      O         0.0000    0.9148    0.0477    0.0       1.0000    Biso     1.000    
         O144      O         0.0000    0.5852    0.0477    0.0       1.0000    Biso     1.000    
         O145      O         0.0852    0.5477    0.0000    0.0       1.0000    Biso     1.000    
         O146      O         0.4148    0.5477    0.0000    0.0       1.0000    Biso     1.000    
         O147      O         0.4148    0.9524    0.0000    0.0       1.0000    Biso     1.000    
         O148      O         0.0852    0.9524    0.0000    0.0       1.0000    Biso     1.000    
         O149      O         0.0477    0.5000    0.4148    0.0       1.0000    Biso     1.000    
         O150      O         0.0477    0.5000    0.0852    0.0       1.0000    Biso     1.000    
         O151      O         0.4524    0.5000    0.0852    0.0       1.0000    Biso     1.000    
         O152      O         0.4524    0.5000    0.4148    0.0       1.0000    Biso     1.000    
         O153      O         0.0852    0.7500    0.2977    0.0       1.0000    Biso     1.000    
         O154      O         0.4148    0.7500    0.2977    0.0       1.0000    Biso     1.000    
         O155      O         0.4148    0.7500    0.2023    0.0       1.0000    Biso     1.000    
         O156      O         0.0852    0.7500    0.2023    0.0       1.0000    Biso     1.000    
         O157      O         0.0477    0.8352    0.2500    0.0       1.0000    Biso     1.000    
         O158      O         0.0477    0.6648    0.2500    0.0       1.0000    Biso     1.000    
         O159      O         0.4524    0.6648    0.2500    0.0       1.0000    Biso     1.000    
         O160      O         0.4524    0.8352    0.2500    0.0       1.0000    Biso     1.000    
         O161      O         0.0000    0.7977    0.3352    0.0       1.0000    Biso     1.000    
         O162      O         0.0000    0.7977    0.1648    0.0       1.0000    Biso     1.000    
         O163      O         0.0000    0.7023    0.1648    0.0       1.0000    Biso     1.000    
         O164      O         0.0000    0.7023    0.3352    0.0       1.0000    Biso     1.000    
         O165      O         0.0000    0.8352    0.2023    0.0       1.0000    Biso     1.000    
         O166      O         0.0000    0.6648    0.2023    0.0       1.0000    Biso     1.000    
         O167      O         0.0000    0.6648    0.2977    0.0       1.0000    Biso     1.000    
         O168      O         0.0000    0.8352    0.2977    0.0       1.0000    Biso     1.000    
         O169      O         0.0852    0.7977    0.2500    0.0       1.0000    Biso     1.000    
         O170      O         0.4148    0.7977    0.2500    0.0       1.0000    Biso     1.000    
         O171      O         0.4148    0.7023    0.2500    0.0       1.0000    Biso     1.000    
         O172      O         0.0852    0.7023    0.2500    0.0       1.0000    Biso     1.000    
         O173      O         0.0477    0.7500    0.1648    0.0       1.0000    Biso     1.000    
         O174      O         0.0477    0.7500    0.3352    0.0       1.0000    Biso     1.000    
         O175      O         0.4524    0.7500    0.3352    0.0       1.0000    Biso     1.000    
         O176      O         0.4524    0.7500    0.1648    0.0       1.0000    Biso     1.000    
         O177      O         0.3352    0.5000    0.2977    0.0       1.0000    Biso     1.000    
         O178      O         0.1648    0.5000    0.2977    0.0       1.0000    Biso     1.000    
         O179      O         0.1648    0.5000    0.2023    0.0       1.0000    Biso     1.000    
         O180      O         0.3352    0.5000    0.2023    0.0       1.0000    Biso     1.000    
         O181      O         0.2977    0.5852    0.2500    0.0       1.0000    Biso     1.000    
         O182      O         0.2977    0.9148    0.2500    0.0       1.0000    Biso     1.000    
         O183      O         0.2023    0.9148    0.2500    0.0       1.0000    Biso     1.000    
         O184      O         0.2023    0.5852    0.2500    0.0       1.0000    Biso     1.000    
         O185      O         0.2500    0.5477    0.3352    0.0       1.0000    Biso     1.000    
         O186      O         0.2500    0.5477    0.1648    0.0       1.0000    Biso     1.000    
         O187      O         0.2500    0.9524    0.1648    0.0       1.0000    Biso     1.000    
         O188      O         0.2500    0.9524    0.3352    0.0       1.0000    Biso     1.000    
         O189      O         0.2500    0.5852    0.2023    0.0       1.0000    Biso     1.000    
         O190      O         0.2500    0.9148    0.2023    0.0       1.0000    Biso     1.000    
         O191      O         0.2500    0.9148    0.2977    0.0       1.0000    Biso     1.000    
         O192      O         0.2500    0.5852    0.2977    0.0       1.0000    Biso     1.000    
         O193      O         0.3352    0.5477    0.2500    0.0       1.0000    Biso     1.000    
         O194      O         0.1648    0.5477    0.2500    0.0       1.0000    Biso     1.000    
         O195      O         0.1648    0.9524    0.2500    0.0       1.0000    Biso     1.000    
         O196      O         0.3352    0.9524    0.2500    0.0       1.0000    Biso     1.000    
         O197      O         0.2977    0.5000    0.1648    0.0       1.0000    Biso     1.000    
         O198      O         0.2977    0.5000    0.3352    0.0       1.0000    Biso     1.000    
         O199      O         0.2023    0.5000    0.3352    0.0       1.0000    Biso     1.000    
         O200      O         0.2023    0.5000    0.1648    0.0       1.0000    Biso     1.000    
         O201      O         0.3352    0.7500    0.0477    0.0       1.0000    Biso     1.000    
         O202      O         0.1648    0.7500    0.0477    0.0       1.0000    Biso     1.000    
         O203      O         0.1648    0.7500    0.4524    0.0       1.0000    Biso     1.000    
         O204      O         0.3352    0.7500    0.4524    0.0       1.0000    Biso     1.000    
         O205      O         0.2977    0.8352    0.0000    0.0       1.0000    Biso     1.000    
         O206      O         0.2977    0.6648    0.0000    0.0       1.0000    Biso     1.000    
         O207      O         0.2023    0.6648    0.0000    0.0       1.0000    Biso     1.000    
         O208      O         0.2023    0.8352    0.0000    0.0       1.0000    Biso     1.000    
         O209      O         0.2500    0.7977    0.0852    0.0       1.0000    Biso     1.000    
         O210      O         0.2500    0.7977    0.4148    0.0       1.0000    Biso     1.000    
         O211      O         0.2500    0.7023    0.4148    0.0       1.0000    Biso     1.000    
         O212      O         0.2500    0.7023    0.0852    0.0       1.0000    Biso     1.000    
         O213      O         0.2500    0.8352    0.4524    0.0       1.0000    Biso     1.000    
         O214      O         0.2500    0.6648    0.4524    0.0       1.0000    Biso     1.000    
         O215      O         0.2500    0.6648    0.0477    0.0       1.0000    Biso     1.000    
         O216      O         0.2500    0.8352    0.0477    0.0       1.0000    Biso     1.000    
         O217      O         0.3352    0.7977    0.0000    0.0       1.0000    Biso     1.000    
         O218      O         0.1648    0.7977    0.0000    0.0       1.0000    Biso     1.000    
         O219      O         0.1648    0.7023    0.0000    0.0       1.0000    Biso     1.000    
         O220      O         0.3352    0.7023    0.0000    0.0       1.0000    Biso     1.000    
         O221      O         0.2977    0.7500    0.4148    0.0       1.0000    Biso     1.000    
         O222      O         0.2977    0.7500    0.0852    0.0       1.0000    Biso     1.000    
         O223      O         0.2023    0.7500    0.0852    0.0       1.0000    Biso     1.000    
         O224      O         0.2023    0.7500    0.4148    0.0       1.0000    Biso     1.000    
         O225      O         0.0280    0.9720    0.4720    0.0       .         .        .        
         O226      O         0.4720    0.5280    0.4720    0.0       .         .        .        
         O227      O         0.4720    0.9720    0.0280    0.0       .         .        .        
         O228      O         0.0280    0.5280    0.0280    0.0       .         .        .        
         O229      O         0.4720    0.5280    0.0280    0.0       .         .        .        
         O230      O         0.0280    0.9720    0.0280    0.0       .         .        .        
         O231      O         0.4720    0.9720    0.4720    0.0       .         .        .        
         O232      O         0.0280    0.5280    0.4720    0.0       .         .        .        
         O233      O         0.0280    0.7220    0.2220    0.0       .         .        .        
         O234      O         0.4720    0.7780    0.2220    0.0       .         .        .        
         O235      O         0.4720    0.7220    0.2780    0.0       .         .        .        
         O236      O         0.0280    0.7780    0.2780    0.0       .         .        .        
         O237      O         0.4720    0.7780    0.2780    0.0       .         .        .        
         O238      O         0.0280    0.7220    0.2780    0.0       .         .        .        
         O239      O         0.4720    0.7220    0.2220    0.0       .         .        .        
         O240      O         0.0280    0.7780    0.2220    0.0       .         .        .        
         O241      O         0.2780    0.9720    0.2220    0.0       .         .        .        
         O242      O         0.2220    0.5280    0.2220    0.0       .         .        .        
         O243      O         0.2220    0.9720    0.2780    0.0       .         .        .        
         O244      O         0.2780    0.5280    0.2780    0.0       .         .        .        
         O245      O         0.2220    0.5280    0.2780    0.0       .         .        .        
         O246      O         0.2780    0.9720    0.2780    0.0       .         .        .        
         O247      O         0.2220    0.9720    0.2220    0.0       .         .        .        
         O248      O         0.2780    0.5280    0.2220    0.0       .         .        .        
         O249      O         0.2780    0.7220    0.4720    0.0       .         .        .        
         O250      O         0.2220    0.7780    0.4720    0.0       .         .        .        
         O251      O         0.2220    0.7220    0.0280    0.0       .         .        .        
         O252      O         0.2780    0.7780    0.0280    0.0       .         .        .        
         O253      O         0.2220    0.7780    0.0280    0.0       .         .        .        
         O254      O         0.2780    0.7220    0.0280    0.0       .         .        .        
         O255      O         0.2220    0.7220    0.4720    0.0       .         .        .        
         O256      O         0.2780    0.7780    0.4720    0.0       .         .        .        
         C193      C         0.0768    0.5000    0.4232    0.0       1.0000    Biso     1.000    
         C194      C         0.4232    0.5000    0.4232    0.0       1.0000    Biso     1.000    
         C195      C         0.4232    0.5000    0.0768    0.0       1.0000    Biso     1.000    
         C196      C         0.0768    0.5000    0.0768    0.0       1.0000    Biso     1.000    
         C197      C         0.4232    0.5768    0.0000    0.0       1.0000    Biso     1.000    
         C198      C         0.4232    0.9232    0.0000    0.0       1.0000    Biso     1.000    
         C199      C         0.0768    0.9232    0.0000    0.0       1.0000    Biso     1.000    
         C200      C         0.0768    0.5768    0.0000    0.0       1.0000    Biso     1.000    
         C201      C         0.0000    0.9232    0.0768    0.0       1.0000    Biso     1.000    
         C202      C         0.0000    0.9232    0.4232    0.0       1.0000    Biso     1.000    
         C203      C         0.0000    0.5768    0.4232    0.0       1.0000    Biso     1.000    
         C204      C         0.0000    0.5768    0.0768    0.0       1.0000    Biso     1.000    
         C205      C         0.0768    0.7500    0.1732    0.0       1.0000    Biso     1.000    
         C206      C         0.4232    0.7500    0.1732    0.0       1.0000    Biso     1.000    
         C207      C         0.4232    0.7500    0.3268    0.0       1.0000    Biso     1.000    
         C208      C         0.0768    0.7500    0.3268    0.0       1.0000    Biso     1.000    
         C209      C         0.4232    0.8268    0.2500    0.0       1.0000    Biso     1.000    
         C210      C         0.4232    0.6732    0.2500    0.0       1.0000    Biso     1.000    
         C211      C         0.0768    0.6732    0.2500    0.0       1.0000    Biso     1.000    
         C212      C         0.0768    0.8268    0.2500    0.0       1.0000    Biso     1.000    
         C213      C         0.0000    0.6732    0.3268    0.0       1.0000    Biso     1.000    
         C214      C         0.0000    0.6732    0.1732    0.0       1.0000    Biso     1.000    
         C215      C         0.0000    0.8268    0.1732    0.0       1.0000    Biso     1.000    
         C216      C         0.0000    0.8268    0.3268    0.0       1.0000    Biso     1.000    
         C217      C         0.3268    0.5000    0.1732    0.0       1.0000    Biso     1.000    
         C218      C         0.1732    0.5000    0.1732    0.0       1.0000    Biso     1.000    
         C219      C         0.1732    0.5000    0.3268    0.0       1.0000    Biso     1.000    
         C220      C         0.3268    0.5000    0.3268    0.0       1.0000    Biso     1.000    
         C221      C         0.1732    0.5768    0.2500    0.0       1.0000    Biso     1.000    
         C222      C         0.1732    0.9232    0.2500    0.0       1.0000    Biso     1.000    
         C223      C         0.3268    0.9232    0.2500    0.0       1.0000    Biso     1.000    
         C224      C         0.3268    0.5768    0.2500    0.0       1.0000    Biso     1.000    
         C225      C         0.2500    0.9232    0.3268    0.0       1.0000    Biso     1.000    
         C226      C         0.2500    0.9232    0.1732    0.0       1.0000    Biso     1.000    
         C227      C         0.2500    0.5768    0.1732    0.0       1.0000    Biso     1.000    
         C228      C         0.2500    0.5768    0.3268    0.0       1.0000    Biso     1.000    
         C229      C         0.3268    0.7500    0.4232    0.0       1.0000    Biso     1.000    
         C230      C         0.1732    0.7500    0.4232    0.0       1.0000    Biso     1.000    
         C231      C         0.1732    0.7500    0.0768    0.0       1.0000    Biso     1.000    
         C232      C         0.3268    0.7500    0.0768    0.0       1.0000    Biso     1.000    
         C233      C         0.1732    0.8268    0.0000    0.0       1.0000    Biso     1.000    
         C234      C         0.1732    0.6732    0.0000    0.0       1.0000    Biso     1.000    
         C235      C         0.3268    0.6732    0.0000    0.0       1.0000    Biso     1.000    
         C236      C         0.3268    0.8268    0.0000    0.0       1.0000    Biso     1.000    
         C237      C         0.2500    0.6732    0.0768    0.0       1.0000    Biso     1.000    
         C238      C         0.2500    0.6732    0.4232    0.0       1.0000    Biso     1.000    
         C239      C         0.2500    0.8268    0.4232    0.0       1.0000    Biso     1.000    
         C240      C         0.2500    0.8268    0.0768    0.0       1.0000    Biso     1.000    
         C241      C         0.1025    0.5000    0.1025    0.0       1.0000    Biso     1.000    
         C242      C         0.3975    0.5000    0.1025    0.0       1.0000    Biso     1.000    
         C243      C         0.3975    0.5000    0.3975    0.0       1.0000    Biso     1.000    
         C244      C         0.1025    0.5000    0.3975    0.0       1.0000    Biso     1.000    
         C245      C         0.1025    0.6025    0.0000    0.0       1.0000    Biso     1.000    
         C246      C         0.1025    0.8975    0.0000    0.0       1.0000    Biso     1.000    
         C247      C         0.3975    0.8975    0.0000    0.0       1.0000    Biso     1.000    
         C248      C         0.3975    0.6025    0.0000    0.0       1.0000    Biso     1.000    
         C249      C         0.0000    0.6025    0.1025    0.0       1.0000    Biso     1.000    
         C250      C         0.0000    0.6025    0.3975    0.0       1.0000    Biso     1.000    
         C251      C         0.0000    0.8975    0.3975    0.0       1.0000    Biso     1.000    
         C252      C         0.0000    0.8975    0.1025    0.0       1.0000    Biso     1.000    
         C253      C         0.1025    0.7500    0.3525    0.0       1.0000    Biso     1.000    
         C254      C         0.3975    0.7500    0.3525    0.0       1.0000    Biso     1.000    
         C255      C         0.3975    0.7500    0.1475    0.0       1.0000    Biso     1.000    
         C256      C         0.1025    0.7500    0.1475    0.0       1.0000    Biso     1.000    
         C257      C         0.1025    0.8525    0.2500    0.0       1.0000    Biso     1.000    
         C258      C         0.1025    0.6475    0.2500    0.0       1.0000    Biso     1.000    
         C259      C         0.3975    0.6475    0.2500    0.0       1.0000    Biso     1.000    
         C260      C         0.3975    0.8525    0.2500    0.0       1.0000    Biso     1.000    
         C261      C         0.0000    0.8525    0.3525    0.0       1.0000    Biso     1.000    
         C262      C         0.0000    0.8525    0.1475    0.0       1.0000    Biso     1.000    
         C263      C         0.0000    0.6475    0.1475    0.0       1.0000    Biso     1.000    
         C264      C         0.0000    0.6475    0.3525    0.0       1.0000    Biso     1.000    
         C265      C         0.3525    0.5000    0.3525    0.0       1.0000    Biso     1.000    
         C266      C         0.1475    0.5000    0.3525    0.0       1.0000    Biso     1.000    
         C267      C         0.1475    0.5000    0.1475    0.0       1.0000    Biso     1.000    
         C268      C         0.3525    0.5000    0.1475    0.0       1.0000    Biso     1.000    
         C269      C         0.3525    0.6025    0.2500    0.0       1.0000    Biso     1.000    
         C270      C         0.3525    0.8975    0.2500    0.0       1.0000    Biso     1.000    
         C271      C         0.1475    0.8975    0.2500    0.0       1.0000    Biso     1.000    
         C272      C         0.1475    0.6025    0.2500    0.0       1.0000    Biso     1.000    
         C273      C         0.2500    0.6025    0.3525    0.0       1.0000    Biso     1.000    
         C274      C         0.2500    0.6025    0.1475    0.0       1.0000    Biso     1.000    
         C275      C         0.2500    0.8975    0.1475    0.0       1.0000    Biso     1.000    
         C276      C         0.2500    0.8975    0.3525    0.0       1.0000    Biso     1.000    
         C277      C         0.3525    0.7500    0.1025    0.0       1.0000    Biso     1.000    
         C278      C         0.1475    0.7500    0.1025    0.0       1.0000    Biso     1.000    
         C279      C         0.1475    0.7500    0.3975    0.0       1.0000    Biso     1.000    
         C280      C         0.3525    0.7500    0.3975    0.0       1.0000    Biso     1.000    
         C281      C         0.3525    0.8525    0.0000    0.0       1.0000    Biso     1.000    
         C282      C         0.3525    0.6475    0.0000    0.0       1.0000    Biso     1.000    
         C283      C         0.1475    0.6475    0.0000    0.0       1.0000    Biso     1.000    
         C284      C         0.1475    0.8525    0.0000    0.0       1.0000    Biso     1.000    
         C285      C         0.2500    0.8525    0.1025    0.0       1.0000    Biso     1.000    
         C286      C         0.2500    0.8525    0.3975    0.0       1.0000    Biso     1.000    
         C287      C         0.2500    0.6475    0.3975    0.0       1.0000    Biso     1.000    
         C288      C         0.2500    0.6475    0.1025    0.0       1.0000    Biso     1.000    
         C289      C         0.1337    0.5000    0.0922    0.0       1.0000    Biso     1.000    
         C290      C         0.3663    0.5000    0.0922    0.0       1.0000    Biso     1.000    
         C291      C         0.3663    0.5000    0.4078    0.0       1.0000    Biso     1.000    
         C292      C         0.1337    0.5000    0.4078    0.0       1.0000    Biso     1.000    
         C293      C         0.0922    0.6337    0.0000    0.0       1.0000    Biso     1.000    
         C294      C         0.0922    0.8663    0.0000    0.0       1.0000    Biso     1.000    
         C295      C         0.4078    0.8663    0.0000    0.0       1.0000    Biso     1.000    
         C296      C         0.4078    0.6337    0.0000    0.0       1.0000    Biso     1.000    
         C297      C         0.0000    0.5922    0.1337    0.0       1.0000    Biso     1.000    
         C298      C         0.0000    0.5922    0.3663    0.0       1.0000    Biso     1.000    
         C299      C         0.0000    0.9078    0.3663    0.0       1.0000    Biso     1.000    
         C300      C         0.0000    0.9078    0.1337    0.0       1.0000    Biso     1.000    
         C301      C         0.0000    0.6337    0.4078    0.0       1.0000    Biso     1.000    
         C302      C         0.0000    0.8663    0.4078    0.0       1.0000    Biso     1.000    
         C303      C         0.0000    0.8663    0.0922    0.0       1.0000    Biso     1.000    
         C304      C         0.0000    0.6337    0.0922    0.0       1.0000    Biso     1.000    
         C305      C         0.1337    0.5922    0.0000    0.0       1.0000    Biso     1.000    
         C306      C         0.3663    0.5922    0.0000    0.0       1.0000    Biso     1.000    
         C307      C         0.3663    0.9078    0.0000    0.0       1.0000    Biso     1.000    
         C308      C         0.1337    0.9078    0.0000    0.0       1.0000    Biso     1.000    
         C309      C         0.0922    0.5000    0.3663    0.0       1.0000    Biso     1.000    
         C310      C         0.0922    0.5000    0.1337    0.0       1.0000    Biso     1.000    
         C311      C         0.4078    0.5000    0.1337    0.0       1.0000    Biso     1.000    
         C312      C         0.4078    0.5000    0.3663    0.0       1.0000    Biso     1.000    
         C313      C         0.1337    0.7500    0.3422    0.0       1.0000    Biso     1.000    
         C314      C         0.3663    0.7500    0.3422    0.0       1.0000    Biso     1.000    
         C315      C         0.3663    0.7500    0.1578    0.0       1.0000    Biso     1.000    
         C316      C         0.1337    0.7500    0.1578    0.0       1.0000    Biso     1.000    
         C317      C         0.0922    0.8838    0.2500    0.0       1.0000    Biso     1.000    
         C318      C         0.0922    0.6163    0.2500    0.0       1.0000    Biso     1.000    
         C319      C         0.4078    0.6163    0.2500    0.0       1.0000    Biso     1.000    
         C320      C         0.4078    0.8838    0.2500    0.0       1.0000    Biso     1.000    
         C321      C         0.0000    0.8422    0.3838    0.0       1.0000    Biso     1.000    
         C322      C         0.0000    0.8422    0.1163    0.0       1.0000    Biso     1.000    
         C323      C         0.0000    0.6578    0.1163    0.0       1.0000    Biso     1.000    
         C324      C         0.0000    0.6578    0.3838    0.0       1.0000    Biso     1.000    
         C325      C         0.0000    0.8838    0.1578    0.0       1.0000    Biso     1.000    
         C326      C         0.0000    0.6163    0.1578    0.0       1.0000    Biso     1.000    
         C327      C         0.0000    0.6163    0.3422    0.0       1.0000    Biso     1.000    
         C328      C         0.0000    0.8838    0.3422    0.0       1.0000    Biso     1.000    
         C329      C         0.1337    0.8422    0.2500    0.0       1.0000    Biso     1.000    
         C330      C         0.3663    0.8422    0.2500    0.0       1.0000    Biso     1.000    
         C331      C         0.3663    0.6578    0.2500    0.0       1.0000    Biso     1.000    
         C332      C         0.1337    0.6578    0.2500    0.0       1.0000    Biso     1.000    
         C333      C         0.0922    0.7500    0.1163    0.0       1.0000    Biso     1.000    
         C334      C         0.0922    0.7500    0.3838    0.0       1.0000    Biso     1.000    
         C335      C         0.4078    0.7500    0.3838    0.0       1.0000    Biso     1.000    
         C336      C         0.4078    0.7500    0.1163    0.0       1.0000    Biso     1.000    
         C337      C         0.3838    0.5000    0.3422    0.0       1.0000    Biso     1.000    
         C338      C         0.1163    0.5000    0.3422    0.0       1.0000    Biso     1.000    
         C339      C         0.1163    0.5000    0.1578    0.0       1.0000    Biso     1.000    
         C340      C         0.3838    0.5000    0.1578    0.0       1.0000    Biso     1.000    
         C341      C         0.3422    0.6337    0.2500    0.0       1.0000    Biso     1.000    
         C342      C         0.3422    0.8663    0.2500    0.0       1.0000    Biso     1.000    
         C343      C         0.1578    0.8663    0.2500    0.0       1.0000    Biso     1.000    
         C344      C         0.1578    0.6337    0.2500    0.0       1.0000    Biso     1.000    
         C345      C         0.2500    0.5922    0.3838    0.0       1.0000    Biso     1.000    
         C346      C         0.2500    0.5922    0.1163    0.0       1.0000    Biso     1.000    
         C347      C         0.2500    0.9078    0.1163    0.0       1.0000    Biso     1.000    
         C348      C         0.2500    0.9078    0.3838    0.0       1.0000    Biso     1.000    
         C349      C         0.2500    0.6337    0.1578    0.0       1.0000    Biso     1.000    
         C350      C         0.2500    0.8663    0.1578    0.0       1.0000    Biso     1.000    
         C351      C         0.2500    0.8663    0.3422    0.0       1.0000    Biso     1.000    
         C352      C         0.2500    0.6337    0.3422    0.0       1.0000    Biso     1.000    
         C353      C         0.3838    0.5922    0.2500    0.0       1.0000    Biso     1.000    
         C354      C         0.1163    0.5922    0.2500    0.0       1.0000    Biso     1.000    
         C355      C         0.1163    0.9078    0.2500    0.0       1.0000    Biso     1.000    
         C356      C         0.3838    0.9078    0.2500    0.0       1.0000    Biso     1.000    
         C357      C         0.3422    0.5000    0.1163    0.0       1.0000    Biso     1.000    
         C358      C         0.3422    0.5000    0.3838    0.0       1.0000    Biso     1.000    
         C359      C         0.1578    0.5000    0.3838    0.0       1.0000    Biso     1.000    
         C360      C         0.1578    0.5000    0.1163    0.0       1.0000    Biso     1.000    
         C361      C         0.3838    0.7500    0.0922    0.0       1.0000    Biso     1.000    
         C362      C         0.1163    0.7500    0.0922    0.0       1.0000    Biso     1.000    
         C363      C         0.1163    0.7500    0.4078    0.0       1.0000    Biso     1.000    
         C364      C         0.3838    0.7500    0.4078    0.0       1.0000    Biso     1.000    
         C365      C         0.3422    0.8838    0.0000    0.0       1.0000    Biso     1.000    
         C366      C         0.3422    0.6163    0.0000    0.0       1.0000    Biso     1.000    
         C367      C         0.1578    0.6163    0.0000    0.0       1.0000    Biso     1.000    
         C368      C         0.1578    0.8838    0.0000    0.0       1.0000    Biso     1.000    
         C369      C         0.2500    0.8422    0.1337    0.0       1.0000    Biso     1.000    
         C370      C         0.2500    0.8422    0.3663    0.0       1.0000    Biso     1.000    
         C371      C         0.2500    0.6578    0.3663    0.0       1.0000    Biso     1.000    
         C372      C         0.2500    0.6578    0.1337    0.0       1.0000    Biso     1.000    
         C373      C         0.2500    0.8838    0.4078    0.0       1.0000    Biso     1.000    
         C374      C         0.2500    0.6163    0.4078    0.0       1.0000    Biso     1.000    
         C375      C         0.2500    0.6163    0.0922    0.0       1.0000    Biso     1.000    
         C376      C         0.2500    0.8838    0.0922    0.0       1.0000    Biso     1.000    
         C377      C         0.3838    0.8422    0.0000    0.0       1.0000    Biso     1.000    
         C378      C         0.1163    0.8422    0.0000    0.0       1.0000    Biso     1.000    
         C379      C         0.1163    0.6578    0.0000    0.0       1.0000    Biso     1.000    
         C380      C         0.3838    0.6578    0.0000    0.0       1.0000    Biso     1.000    
         C381      C         0.3422    0.7500    0.3663    0.0       1.0000    Biso     1.000    
         C382      C         0.3422    0.7500    0.1337    0.0       1.0000    Biso     1.000    
         C383      C         0.1578    0.7500    0.1337    0.0       1.0000    Biso     1.000    
         C384      C         0.1578    0.7500    0.3663    0.0       1.0000    Biso     1.000    
         H97       H         0.1395    0.5000    0.0679    0.0       1.0000    Biso     1.000    
         H98       H         0.3605    0.5000    0.0679    0.0       1.0000    Biso     1.000    
         H99       H         0.3605    0.5000    0.4321    0.0       1.0000    Biso     1.000    
         H100      H         0.1395    0.5000    0.4321    0.0       1.0000    Biso     1.000    
         H101      H         0.0679    0.6395    0.0000    0.0       1.0000    Biso     1.000    
         H102      H         0.0679    0.8605    0.0000    0.0       1.0000    Biso     1.000    
         H103      H         0.4321    0.8605    0.0000    0.0       1.0000    Biso     1.000    
         H104      H         0.4321    0.6395    0.0000    0.0       1.0000    Biso     1.000    
         H105      H         0.0000    0.5679    0.1395    0.0       1.0000    Biso     1.000    
         H106      H         0.0000    0.5679    0.3605    0.0       1.0000    Biso     1.000    
         H107      H         0.0000    0.9321    0.3605    0.0       1.0000    Biso     1.000    
         H108      H         0.0000    0.9321    0.1395    0.0       1.0000    Biso     1.000    
         H109      H         0.0000    0.6395    0.4321    0.0       1.0000    Biso     1.000    
         H110      H         0.0000    0.8605    0.4321    0.0       1.0000    Biso     1.000    
         H111      H         0.0000    0.8605    0.0679    0.0       1.0000    Biso     1.000    
         H112      H         0.0000    0.6395    0.0679    0.0       1.0000    Biso     1.000    
         H113      H         0.1395    0.5679    0.0000    0.0       1.0000    Biso     1.000    
         H114      H         0.3605    0.5679    0.0000    0.0       1.0000    Biso     1.000    
         H115      H         0.3605    0.9321    0.0000    0.0       1.0000    Biso     1.000    
         H116      H         0.1395    0.9321    0.0000    0.0       1.0000    Biso     1.000    
         H117      H         0.0679    0.5000    0.3605    0.0       1.0000    Biso     1.000    
         H118      H         0.0679    0.5000    0.1395    0.0       1.0000    Biso     1.000    
         H119      H         0.4321    0.5000    0.1395    0.0       1.0000    Biso     1.000    
         H120      H         0.4321    0.5000    0.3605    0.0       1.0000    Biso     1.000    
         H121      H         0.1395    0.7500    0.3179    0.0       1.0000    Biso     1.000    
         H122      H         0.3605    0.7500    0.3179    0.0       1.0000    Biso     1.000    
         H123      H         0.3605    0.7500    0.1821    0.0       1.0000    Biso     1.000    
         H124      H         0.1395    0.7500    0.1821    0.0       1.0000    Biso     1.000    
         H125      H         0.0679    0.8895    0.2500    0.0       1.0000    Biso     1.000    
         H126      H         0.0679    0.6105    0.2500    0.0       1.0000    Biso     1.000    
         H127      H         0.4321    0.6105    0.2500    0.0       1.0000    Biso     1.000    
         H128      H         0.4321    0.8895    0.2500    0.0       1.0000    Biso     1.000    
         H129      H         0.0000    0.8179    0.3895    0.0       1.0000    Biso     1.000    
         H130      H         0.0000    0.8179    0.1105    0.0       1.0000    Biso     1.000    
         H131      H         0.0000    0.6821    0.1105    0.0       1.0000    Biso     1.000    
         H132      H         0.0000    0.6821    0.3895    0.0       1.0000    Biso     1.000    
         H133      H         0.0000    0.8895    0.1821    0.0       1.0000    Biso     1.000    
         H134      H         0.0000    0.6105    0.1821    0.0       1.0000    Biso     1.000    
         H135      H         0.0000    0.6105    0.3179    0.0       1.0000    Biso     1.000    
         H136      H         0.0000    0.8895    0.3179    0.0       1.0000    Biso     1.000    
         H137      H         0.1395    0.8179    0.2500    0.0       1.0000    Biso     1.000    
         H138      H         0.3605    0.8179    0.2500    0.0       1.0000    Biso     1.000    
         H139      H         0.3605    0.6821    0.2500    0.0       1.0000    Biso     1.000    
         H140      H         0.1395    0.6821    0.2500    0.0       1.0000    Biso     1.000    
         H141      H         0.0679    0.7500    0.1105    0.0       1.0000    Biso     1.000    
         H142      H         0.0679    0.7500    0.3895    0.0       1.0000    Biso     1.000    
         H143      H         0.4321    0.7500    0.3895    0.0       1.0000    Biso     1.000    
         H144      H         0.4321    0.7500    0.1105    0.0       1.0000    Biso     1.000    
         H145      H         0.3895    0.5000    0.3179    0.0       1.0000    Biso     1.000    
         H146      H         0.1105    0.5000    0.3179    0.0       1.0000    Biso     1.000    
         H147      H         0.1105    0.5000    0.1821    0.0       1.0000    Biso     1.000    
         H148      H         0.3895    0.5000    0.1821    0.0       1.0000    Biso     1.000    
         H149      H         0.3179    0.6395    0.2500    0.0       1.0000    Biso     1.000    
         H150      H         0.3179    0.8605    0.2500    0.0       1.0000    Biso     1.000    
         H151      H         0.1821    0.8605    0.2500    0.0       1.0000    Biso     1.000    
         H152      H         0.1821    0.6395    0.2500    0.0       1.0000    Biso     1.000    
         H153      H         0.2500    0.5679    0.3895    0.0       1.0000    Biso     1.000    
         H154      H         0.2500    0.5679    0.1105    0.0       1.0000    Biso     1.000    
         H155      H         0.2500    0.9321    0.1105    0.0       1.0000    Biso     1.000    
         H156      H         0.2500    0.9321    0.3895    0.0       1.0000    Biso     1.000    
         H157      H         0.2500    0.6395    0.1821    0.0       1.0000    Biso     1.000    
         H158      H         0.2500    0.8605    0.1821    0.0       1.0000    Biso     1.000    
         H159      H         0.2500    0.8605    0.3179    0.0       1.0000    Biso     1.000    
         H160      H         0.2500    0.6395    0.3179    0.0       1.0000    Biso     1.000    
         H161      H         0.3895    0.5679    0.2500    0.0       1.0000    Biso     1.000    
         H162      H         0.1105    0.5679    0.2500    0.0       1.0000    Biso     1.000    
         H163      H         0.1105    0.9321    0.2500    0.0       1.0000    Biso     1.000    
         H164      H         0.3895    0.9321    0.2500    0.0       1.0000    Biso     1.000    
         H165      H         0.3179    0.5000    0.1105    0.0       1.0000    Biso     1.000    
         H166      H         0.3179    0.5000    0.3895    0.0       1.0000    Biso     1.000    
         H167      H         0.1821    0.5000    0.3895    0.0       1.0000    Biso     1.000    
         H168      H         0.1821    0.5000    0.1105    0.0       1.0000    Biso     1.000    
         H169      H         0.3895    0.7500    0.0679    0.0       1.0000    Biso     1.000    
         H170      H         0.1105    0.7500    0.0679    0.0       1.0000    Biso     1.000    
         H171      H         0.1105    0.7500    0.4321    0.0       1.0000    Biso     1.000    
         H172      H         0.3895    0.7500    0.4321    0.0       1.0000    Biso     1.000    
         H173      H         0.3179    0.8895    0.0000    0.0       1.0000    Biso     1.000    
         H174      H         0.3179    0.6105    0.0000    0.0       1.0000    Biso     1.000    
         H175      H         0.1821    0.6105    0.0000    0.0       1.0000    Biso     1.000    
         H176      H         0.1821    0.8895    0.0000    0.0       1.0000    Biso     1.000    
         H177      H         0.2500    0.8179    0.1395    0.0       1.0000    Biso     1.000    
         H178      H         0.2500    0.8179    0.3605    0.0       1.0000    Biso     1.000    
         H179      H         0.2500    0.6821    0.3605    0.0       1.0000    Biso     1.000    
         H180      H         0.2500    0.6821    0.1395    0.0       1.0000    Biso     1.000    
         H181      H         0.2500    0.8895    0.4321    0.0       1.0000    Biso     1.000    
         H182      H         0.2500    0.6105    0.4321    0.0       1.0000    Biso     1.000    
         H183      H         0.2500    0.6105    0.0679    0.0       1.0000    Biso     1.000    
         H184      H         0.2500    0.8895    0.0679    0.0       1.0000    Biso     1.000    
         H185      H         0.3895    0.8179    0.0000    0.0       1.0000    Biso     1.000    
         H186      H         0.1105    0.8179    0.0000    0.0       1.0000    Biso     1.000    
         H187      H         0.1105    0.6821    0.0000    0.0       1.0000    Biso     1.000    
         H188      H         0.3895    0.6821    0.0000    0.0       1.0000    Biso     1.000    
         H189      H         0.3179    0.7500    0.3605    0.0       1.0000    Biso     1.000    
         H190      H         0.3179    0.7500    0.1395    0.0       1.0000    Biso     1.000    
         H191      H         0.1821    0.7500    0.1395    0.0       1.0000    Biso     1.000    
         H192      H         0.1821    0.7500    0.3605    0.0       1.0000    Biso     1.000    
         Zr22      Zr        0.9401    0.0000    0.0000    0.0       .         .        .        
         Zr23      Zr        0.5000    0.0600    0.0000    0.0       .         .        .        
         Zr24      Zr        0.5000    0.4401    0.0000    0.0       .         .        .        
         Zr25      Zr        0.5000    0.0000    0.0600    0.0       .         .        .        
         Zr26      Zr        0.5599    0.2500    0.2500    0.0       .         .        .        
         Zr27      Zr        0.9401    0.2500    0.2500    0.0       .         .        .        
         Zr28      Zr        0.5000    0.3100    0.2500    0.0       .         .        .        
         Zr29      Zr        0.5000    0.2500    0.1900    0.0       .         .        .        
         Zr30      Zr        0.6900    0.0000    0.2500    0.0       .         .        .        
         Zr31      Zr        0.7500    0.4401    0.2500    0.0       .         .        .        
         Zr32      Zr        0.7500    0.0000    0.3100    0.0       .         .        .        
         Zr33      Zr        0.8099    0.2500    0.0000    0.0       .         .        .        
         Zr34      Zr        0.7500    0.3100    0.0000    0.0       .         .        .        
         Zr35      Zr        0.7500    0.2500    0.4401    0.0       .         .        .        
         O257      O         0.5852    0.0000    0.0477    0.0       1.0000    Biso     1.000    
         O258      O         0.9148    0.0000    0.0477    0.0       1.0000    Biso     1.000    
         O259      O         0.9148    0.0000    0.4524    0.0       1.0000    Biso     1.000    
         O260      O         0.5852    0.0000    0.4524    0.0       1.0000    Biso     1.000    
         O261      O         0.5477    0.0852    0.0000    0.0       1.0000    Biso     1.000    
         O262      O         0.5477    0.4148    0.0000    0.0       1.0000    Biso     1.000    
         O263      O         0.9524    0.4148    0.0000    0.0       1.0000    Biso     1.000    
         O264      O         0.9524    0.0852    0.0000    0.0       1.0000    Biso     1.000    
         O265      O         0.5000    0.0477    0.0852    0.0       1.0000    Biso     1.000    
         O266      O         0.5000    0.0477    0.4148    0.0       1.0000    Biso     1.000    
         O267      O         0.5000    0.4524    0.4148    0.0       1.0000    Biso     1.000    
         O268      O         0.5000    0.4524    0.0852    0.0       1.0000    Biso     1.000    
         O269      O         0.5000    0.0852    0.4524    0.0       1.0000    Biso     1.000    
         O270      O         0.5000    0.4148    0.4524    0.0       1.0000    Biso     1.000    
         O271      O         0.5000    0.4148    0.0477    0.0       1.0000    Biso     1.000    
         O272      O         0.5000    0.0852    0.0477    0.0       1.0000    Biso     1.000    
         O273      O         0.5852    0.0477    0.0000    0.0       1.0000    Biso     1.000    
         O274      O         0.9148    0.0477    0.0000    0.0       1.0000    Biso     1.000    
         O275      O         0.9148    0.4524    0.0000    0.0       1.0000    Biso     1.000    
         O276      O         0.5852    0.4524    0.0000    0.0       1.0000    Biso     1.000    
         O277      O         0.5477    0.0000    0.4148    0.0       1.0000    Biso     1.000    
         O278      O         0.5477    0.0000    0.0852    0.0       1.0000    Biso     1.000    
         O279      O         0.9524    0.0000    0.0852    0.0       1.0000    Biso     1.000    
         O280      O         0.9524    0.0000    0.4148    0.0       1.0000    Biso     1.000    
         O281      O         0.5852    0.2500    0.2977    0.0       1.0000    Biso     1.000    
         O282      O         0.9148    0.2500    0.2977    0.0       1.0000    Biso     1.000    
         O283      O         0.9148    0.2500    0.2023    0.0       1.0000    Biso     1.000    
         O284      O         0.5852    0.2500    0.2023    0.0       1.0000    Biso     1.000    
         O285      O         0.5477    0.3352    0.2500    0.0       1.0000    Biso     1.000    
         O286      O         0.5477    0.1648    0.2500    0.0       1.0000    Biso     1.000    
         O287      O         0.9524    0.1648    0.2500    0.0       1.0000    Biso     1.000    
         O288      O         0.9524    0.3352    0.2500    0.0       1.0000    Biso     1.000    
         O289      O         0.5000    0.2977    0.3352    0.0       1.0000    Biso     1.000    
         O290      O         0.5000    0.2977    0.1648    0.0       1.0000    Biso     1.000    
         O291      O         0.5000    0.2023    0.1648    0.0       1.0000    Biso     1.000    
         O292      O         0.5000    0.2023    0.3352    0.0       1.0000    Biso     1.000    
         O293      O         0.5000    0.3352    0.2023    0.0       1.0000    Biso     1.000    
         O294      O         0.5000    0.1648    0.2023    0.0       1.0000    Biso     1.000    
         O295      O         0.5000    0.1648    0.2977    0.0       1.0000    Biso     1.000    
         O296      O         0.5000    0.3352    0.2977    0.0       1.0000    Biso     1.000    
         O297      O         0.5852    0.2977    0.2500    0.0       1.0000    Biso     1.000    
         O298      O         0.9148    0.2977    0.2500    0.0       1.0000    Biso     1.000    
         O299      O         0.9148    0.2023    0.2500    0.0       1.0000    Biso     1.000    
         O300      O         0.5852    0.2023    0.2500    0.0       1.0000    Biso     1.000    
         O301      O         0.5477    0.2500    0.1648    0.0       1.0000    Biso     1.000    
         O302      O         0.5477    0.2500    0.3352    0.0       1.0000    Biso     1.000    
         O303      O         0.9524    0.2500    0.3352    0.0       1.0000    Biso     1.000    
         O304      O         0.9524    0.2500    0.1648    0.0       1.0000    Biso     1.000    
         O305      O         0.8352    0.0000    0.2977    0.0       1.0000    Biso     1.000    
         O306      O         0.6648    0.0000    0.2977    0.0       1.0000    Biso     1.000    
         O307      O         0.6648    0.0000    0.2023    0.0       1.0000    Biso     1.000    
         O308      O         0.8352    0.0000    0.2023    0.0       1.0000    Biso     1.000    
         O309      O         0.7977    0.0852    0.2500    0.0       1.0000    Biso     1.000    
         O310      O         0.7977    0.4148    0.2500    0.0       1.0000    Biso     1.000    
         O311      O         0.7023    0.4148    0.2500    0.0       1.0000    Biso     1.000    
         O312      O         0.7023    0.0852    0.2500    0.0       1.0000    Biso     1.000    
         O313      O         0.7500    0.0477    0.3352    0.0       1.0000    Biso     1.000    
         O314      O         0.7500    0.0477    0.1648    0.0       1.0000    Biso     1.000    
         O315      O         0.7500    0.4524    0.1648    0.0       1.0000    Biso     1.000    
         O316      O         0.7500    0.4524    0.3352    0.0       1.0000    Biso     1.000    
         O317      O         0.7500    0.0852    0.2023    0.0       1.0000    Biso     1.000    
         O318      O         0.7500    0.4148    0.2023    0.0       1.0000    Biso     1.000    
         O319      O         0.7500    0.4148    0.2977    0.0       1.0000    Biso     1.000    
         O320      O         0.7500    0.0852    0.2977    0.0       1.0000    Biso     1.000    
         O321      O         0.8352    0.0477    0.2500    0.0       1.0000    Biso     1.000    
         O322      O         0.6648    0.0477    0.2500    0.0       1.0000    Biso     1.000    
         O323      O         0.6648    0.4524    0.2500    0.0       1.0000    Biso     1.000    
         O324      O         0.8352    0.4524    0.2500    0.0       1.0000    Biso     1.000    
         O325      O         0.7977    0.0000    0.1648    0.0       1.0000    Biso     1.000    
         O326      O         0.7977    0.0000    0.3352    0.0       1.0000    Biso     1.000    
         O327      O         0.7023    0.0000    0.3352    0.0       1.0000    Biso     1.000    
         O328      O         0.7023    0.0000    0.1648    0.0       1.0000    Biso     1.000    
         O329      O         0.8352    0.2500    0.0477    0.0       1.0000    Biso     1.000    
         O330      O         0.6648    0.2500    0.0477    0.0       1.0000    Biso     1.000    
         O331      O         0.6648    0.2500    0.4524    0.0       1.0000    Biso     1.000    
         O332      O         0.8352    0.2500    0.4524    0.0       1.0000    Biso     1.000    
         O333      O         0.7977    0.3352    0.0000    0.0       1.0000    Biso     1.000    
         O334      O         0.7977    0.1648    0.0000    0.0       1.0000    Biso     1.000    
         O335      O         0.7023    0.1648    0.0000    0.0       1.0000    Biso     1.000    
         O336      O         0.7023    0.3352    0.0000    0.0       1.0000    Biso     1.000    
         O337      O         0.7500    0.2977    0.0852    0.0       1.0000    Biso     1.000    
         O338      O         0.7500    0.2977    0.4148    0.0       1.0000    Biso     1.000    
         O339      O         0.7500    0.2023    0.4148    0.0       1.0000    Biso     1.000    
         O340      O         0.7500    0.2023    0.0852    0.0       1.0000    Biso     1.000    
         O341      O         0.7500    0.3352    0.4524    0.0       1.0000    Biso     1.000    
         O342      O         0.7500    0.1648    0.4524    0.0       1.0000    Biso     1.000    
         O343      O         0.7500    0.1648    0.0477    0.0       1.0000    Biso     1.000    
         O344      O         0.7500    0.3352    0.0477    0.0       1.0000    Biso     1.000    
         O345      O         0.8352    0.2977    0.0000    0.0       1.0000    Biso     1.000    
         O346      O         0.6648    0.2977    0.0000    0.0       1.0000    Biso     1.000    
         O347      O         0.6648    0.2023    0.0000    0.0       1.0000    Biso     1.000    
         O348      O         0.8352    0.2023    0.0000    0.0       1.0000    Biso     1.000    
         O349      O         0.7977    0.2500    0.4148    0.0       1.0000    Biso     1.000    
         O350      O         0.7977    0.2500    0.0852    0.0       1.0000    Biso     1.000    
         O351      O         0.7023    0.2500    0.0852    0.0       1.0000    Biso     1.000    
         O352      O         0.7023    0.2500    0.4148    0.0       1.0000    Biso     1.000    
         O353      O         0.5280    0.4720    0.4720    0.0       .         .        .        
         O354      O         0.9720    0.0280    0.4720    0.0       .         .        .        
         O355      O         0.9720    0.4720    0.0280    0.0       .         .        .        
         O356      O         0.5280    0.0280    0.0280    0.0       .         .        .        
         O357      O         0.9720    0.0280    0.0280    0.0       .         .        .        
         O358      O         0.5280    0.4720    0.0280    0.0       .         .        .        
         O359      O         0.9720    0.4720    0.4720    0.0       .         .        .        
         O360      O         0.5280    0.0280    0.4720    0.0       .         .        .        
         O361      O         0.5280    0.2220    0.2220    0.0       .         .        .        
         O362      O         0.9720    0.2780    0.2220    0.0       .         .        .        
         O363      O         0.9720    0.2220    0.2780    0.0       .         .        .        
         O364      O         0.5280    0.2780    0.2780    0.0       .         .        .        
         O365      O         0.9720    0.2780    0.2780    0.0       .         .        .        
         O366      O         0.5280    0.2220    0.2780    0.0       .         .        .        
         O367      O         0.9720    0.2220    0.2220    0.0       .         .        .        
         O368      O         0.5280    0.2780    0.2220    0.0       .         .        .        
         O369      O         0.7780    0.4720    0.2220    0.0       .         .        .        
         O370      O         0.7220    0.0280    0.2220    0.0       .         .        .        
         O371      O         0.7220    0.4720    0.2780    0.0       .         .        .        
         O372      O         0.7780    0.0280    0.2780    0.0       .         .        .        
         O373      O         0.7220    0.0280    0.2780    0.0       .         .        .        
         O374      O         0.7780    0.4720    0.2780    0.0       .         .        .        
         O375      O         0.7220    0.4720    0.2220    0.0       .         .        .        
         O376      O         0.7780    0.0280    0.2220    0.0       .         .        .        
         O377      O         0.7780    0.2220    0.4720    0.0       .         .        .        
         O378      O         0.7220    0.2780    0.4720    0.0       .         .        .        
         O379      O         0.7220    0.2220    0.0280    0.0       .         .        .        
         O380      O         0.7780    0.2780    0.0280    0.0       .         .        .        
         O381      O         0.7220    0.2780    0.0280    0.0       .         .        .        
         O382      O         0.7780    0.2220    0.0280    0.0       .         .        .        
         O383      O         0.7220    0.2220    0.4720    0.0       .         .        .        
         O384      O         0.7780    0.2780    0.4720    0.0       .         .        .        
         C385      C         0.5768    0.0000    0.4232    0.0       1.0000    Biso     1.000    
         C386      C         0.9232    0.0000    0.4232    0.0       1.0000    Biso     1.000    
         C387      C         0.9232    0.0000    0.0768    0.0       1.0000    Biso     1.000    
         C388      C         0.5768    0.0000    0.0768    0.0       1.0000    Biso     1.000    
         C389      C         0.9232    0.0768    0.0000    0.0       1.0000    Biso     1.000    
         C390      C         0.9232    0.4232    0.0000    0.0       1.0000    Biso     1.000    
         C391      C         0.5768    0.4232    0.0000    0.0       1.0000    Biso     1.000    
         C392      C         0.5768    0.0768    0.0000    0.0       1.0000    Biso     1.000    
         C393      C         0.5000    0.4232    0.0768    0.0       1.0000    Biso     1.000    
         C394      C         0.5000    0.4232    0.4232    0.0       1.0000    Biso     1.000    
         C395      C         0.5000    0.0768    0.4232    0.0       1.0000    Biso     1.000    
         C396      C         0.5000    0.0768    0.0768    0.0       1.0000    Biso     1.000    
         C397      C         0.5768    0.2500    0.1732    0.0       1.0000    Biso     1.000    
         C398      C         0.9232    0.2500    0.1732    0.0       1.0000    Biso     1.000    
         C399      C         0.9232    0.2500    0.3268    0.0       1.0000    Biso     1.000    
         C400      C         0.5768    0.2500    0.3268    0.0       1.0000    Biso     1.000    
         C401      C         0.9232    0.3268    0.2500    0.0       1.0000    Biso     1.000    
         C402      C         0.9232    0.1732    0.2500    0.0       1.0000    Biso     1.000    
         C403      C         0.5768    0.1732    0.2500    0.0       1.0000    Biso     1.000    
         C404      C         0.5768    0.3268    0.2500    0.0       1.0000    Biso     1.000    
         C405      C         0.5000    0.1732    0.3268    0.0       1.0000    Biso     1.000    
         C406      C         0.5000    0.1732    0.1732    0.0       1.0000    Biso     1.000    
         C407      C         0.5000    0.3268    0.1732    0.0       1.0000    Biso     1.000    
         C408      C         0.5000    0.3268    0.3268    0.0       1.0000    Biso     1.000    
         C409      C         0.8268    0.0000    0.1732    0.0       1.0000    Biso     1.000    
         C410      C         0.6732    0.0000    0.1732    0.0       1.0000    Biso     1.000    
         C411      C         0.6732    0.0000    0.3268    0.0       1.0000    Biso     1.000    
         C412      C         0.8268    0.0000    0.3268    0.0       1.0000    Biso     1.000    
         C413      C         0.6732    0.0768    0.2500    0.0       1.0000    Biso     1.000    
         C414      C         0.6732    0.4232    0.2500    0.0       1.0000    Biso     1.000    
         C415      C         0.8268    0.4232    0.2500    0.0       1.0000    Biso     1.000    
         C416      C         0.8268    0.0768    0.2500    0.0       1.0000    Biso     1.000    
         C417      C         0.7500    0.4232    0.3268    0.0       1.0000    Biso     1.000    
         C418      C         0.7500    0.4232    0.1732    0.0       1.0000    Biso     1.000    
         C419      C         0.7500    0.0768    0.1732    0.0       1.0000    Biso     1.000    
         C420      C         0.7500    0.0768    0.3268    0.0       1.0000    Biso     1.000    
         C421      C         0.8268    0.2500    0.4232    0.0       1.0000    Biso     1.000    
         C422      C         0.6732    0.2500    0.4232    0.0       1.0000    Biso     1.000    
         C423      C         0.6732    0.2500    0.0768    0.0       1.0000    Biso     1.000    
         C424      C         0.8268    0.2500    0.0768    0.0       1.0000    Biso     1.000    
         C425      C         0.6732    0.3268    0.0000    0.0       1.0000    Biso     1.000    
         C426      C         0.6732    0.1732    0.0000    0.0       1.0000    Biso     1.000    
         C427      C         0.8268    0.1732    0.0000    0.0       1.0000    Biso     1.000    
         C428      C         0.8268    0.3268    0.0000    0.0       1.0000    Biso     1.000    
         C429      C         0.7500    0.1732    0.0768    0.0       1.0000    Biso     1.000    
         C430      C         0.7500    0.1732    0.4232    0.0       1.0000    Biso     1.000    
         C431      C         0.7500    0.3268    0.4232    0.0       1.0000    Biso     1.000    
         C432      C         0.7500    0.3268    0.0768    0.0       1.0000    Biso     1.000    
         C433      C         0.6025    0.0000    0.1025    0.0       1.0000    Biso     1.000    
         C434      C         0.8975    0.0000    0.1025    0.0       1.0000    Biso     1.000    
         C435      C         0.8975    0.0000    0.3975    0.0       1.0000    Biso     1.000    
         C436      C         0.6025    0.0000    0.3975    0.0       1.0000    Biso     1.000    
         C437      C         0.6025    0.1025    0.0000    0.0       1.0000    Biso     1.000    
         C438      C         0.6025    0.3975    0.0000    0.0       1.0000    Biso     1.000    
         C439      C         0.8975    0.3975    0.0000    0.0       1.0000    Biso     1.000    
         C440      C         0.8975    0.1025    0.0000    0.0       1.0000    Biso     1.000    
         C441      C         0.5000    0.1025    0.1025    0.0       1.0000    Biso     1.000    
         C442      C         0.5000    0.1025    0.3975    0.0       1.0000    Biso     1.000    
         C443      C         0.5000    0.3975    0.3975    0.0       1.0000    Biso     1.000    
         C444      C         0.5000    0.3975    0.1025    0.0       1.0000    Biso     1.000    
         C445      C         0.6025    0.2500    0.3525    0.0       1.0000    Biso     1.000    
         C446      C         0.8975    0.2500    0.3525    0.0       1.0000    Biso     1.000    
         C447      C         0.8975    0.2500    0.1475    0.0       1.0000    Biso     1.000    
         C448      C         0.6025    0.2500    0.1475    0.0       1.0000    Biso     1.000    
         C449      C         0.6025    0.3525    0.2500    0.0       1.0000    Biso     1.000    
         C450      C         0.6025    0.1475    0.2500    0.0       1.0000    Biso     1.000    
         C451      C         0.8975    0.1475    0.2500    0.0       1.0000    Biso     1.000    
         C452      C         0.8975    0.3525    0.2500    0.0       1.0000    Biso     1.000    
         C453      C         0.5000    0.3525    0.3525    0.0       1.0000    Biso     1.000    
         C454      C         0.5000    0.3525    0.1475    0.0       1.0000    Biso     1.000    
         C455      C         0.5000    0.1475    0.1475    0.0       1.0000    Biso     1.000    
         C456      C         0.5000    0.1475    0.3525    0.0       1.0000    Biso     1.000    
         C457      C         0.8525    0.0000    0.3525    0.0       1.0000    Biso     1.000    
         C458      C         0.6475    0.0000    0.3525    0.0       1.0000    Biso     1.000    
         C459      C         0.6475    0.0000    0.1475    0.0       1.0000    Biso     1.000    
         C460      C         0.8525    0.0000    0.1475    0.0       1.0000    Biso     1.000    
         C461      C         0.8525    0.1025    0.2500    0.0       1.0000    Biso     1.000    
         C462      C         0.8525    0.3975    0.2500    0.0       1.0000    Biso     1.000    
         C463      C         0.6475    0.3975    0.2500    0.0       1.0000    Biso     1.000    
         C464      C         0.6475    0.1025    0.2500    0.0       1.0000    Biso     1.000    
         C465      C         0.7500    0.1025    0.3525    0.0       1.0000    Biso     1.000    
         C466      C         0.7500    0.1025    0.1475    0.0       1.0000    Biso     1.000    
         C467      C         0.7500    0.3975    0.1475    0.0       1.0000    Biso     1.000    
         C468      C         0.7500    0.3975    0.3525    0.0       1.0000    Biso     1.000    
         C469      C         0.8525    0.2500    0.1025    0.0       1.0000    Biso     1.000    
         C470      C         0.6475    0.2500    0.1025    0.0       1.0000    Biso     1.000    
         C471      C         0.6475    0.2500    0.3975    0.0       1.0000    Biso     1.000    
         C472      C         0.8525    0.2500    0.3975    0.0       1.0000    Biso     1.000    
         C473      C         0.8525    0.3525    0.0000    0.0       1.0000    Biso     1.000    
         C474      C         0.8525    0.1475    0.0000    0.0       1.0000    Biso     1.000    
         C475      C         0.6475    0.1475    0.0000    0.0       1.0000    Biso     1.000    
         C476      C         0.6475    0.3525    0.0000    0.0       1.0000    Biso     1.000    
         C477      C         0.7500    0.3525    0.1025    0.0       1.0000    Biso     1.000    
         C478      C         0.7500    0.3525    0.3975    0.0       1.0000    Biso     1.000    
         C479      C         0.7500    0.1475    0.3975    0.0       1.0000    Biso     1.000    
         C480      C         0.7500    0.1475    0.1025    0.0       1.0000    Biso     1.000    
         C481      C         0.6337    0.0000    0.0922    0.0       1.0000    Biso     1.000    
         C482      C         0.8663    0.0000    0.0922    0.0       1.0000    Biso     1.000    
         C483      C         0.8663    0.0000    0.4078    0.0       1.0000    Biso     1.000    
         C484      C         0.6337    0.0000    0.4078    0.0       1.0000    Biso     1.000    
         C485      C         0.5922    0.1337    0.0000    0.0       1.0000    Biso     1.000    
         C486      C         0.5922    0.3663    0.0000    0.0       1.0000    Biso     1.000    
         C487      C         0.9078    0.3663    0.0000    0.0       1.0000    Biso     1.000    
         C488      C         0.9078    0.1337    0.0000    0.0       1.0000    Biso     1.000    
         C489      C         0.5000    0.0922    0.1337    0.0       1.0000    Biso     1.000    
         C490      C         0.5000    0.0922    0.3663    0.0       1.0000    Biso     1.000    
         C491      C         0.5000    0.4078    0.3663    0.0       1.0000    Biso     1.000    
         C492      C         0.5000    0.4078    0.1337    0.0       1.0000    Biso     1.000    
         C493      C         0.5000    0.1337    0.4078    0.0       1.0000    Biso     1.000    
         C494      C         0.5000    0.3663    0.4078    0.0       1.0000    Biso     1.000    
         C495      C         0.5000    0.3663    0.0922    0.0       1.0000    Biso     1.000    
         C496      C         0.5000    0.1337    0.0922    0.0       1.0000    Biso     1.000    
         C497      C         0.6337    0.0922    0.0000    0.0       1.0000    Biso     1.000    
         C498      C         0.8663    0.0922    0.0000    0.0       1.0000    Biso     1.000    
         C499      C         0.8663    0.4078    0.0000    0.0       1.0000    Biso     1.000    
         C500      C         0.6337    0.4078    0.0000    0.0       1.0000    Biso     1.000    
         C501      C         0.5922    0.0000    0.3663    0.0       1.0000    Biso     1.000    
         C502      C         0.5922    0.0000    0.1337    0.0       1.0000    Biso     1.000    
         C503      C         0.9078    0.0000    0.1337    0.0       1.0000    Biso     1.000    
         C504      C         0.9078    0.0000    0.3663    0.0       1.0000    Biso     1.000    
         C505      C         0.6337    0.2500    0.3422    0.0       1.0000    Biso     1.000    
         C506      C         0.8663    0.2500    0.3422    0.0       1.0000    Biso     1.000    
         C507      C         0.8663    0.2500    0.1578    0.0       1.0000    Biso     1.000    
         C508      C         0.6337    0.2500    0.1578    0.0       1.0000    Biso     1.000    
         C509      C         0.5922    0.3838    0.2500    0.0       1.0000    Biso     1.000    
         C510      C         0.5922    0.1163    0.2500    0.0       1.0000    Biso     1.000    
         C511      C         0.9078    0.1163    0.2500    0.0       1.0000    Biso     1.000    
         C512      C         0.9078    0.3838    0.2500    0.0       1.0000    Biso     1.000    
         C513      C         0.5000    0.3422    0.3838    0.0       1.0000    Biso     1.000    
         C514      C         0.5000    0.3422    0.1163    0.0       1.0000    Biso     1.000    
         C515      C         0.5000    0.1578    0.1163    0.0       1.0000    Biso     1.000    
         C516      C         0.5000    0.1578    0.3838    0.0       1.0000    Biso     1.000    
         C517      C         0.5000    0.3838    0.1578    0.0       1.0000    Biso     1.000    
         C518      C         0.5000    0.1163    0.1578    0.0       1.0000    Biso     1.000    
         C519      C         0.5000    0.1163    0.3422    0.0       1.0000    Biso     1.000    
         C520      C         0.5000    0.3838    0.3422    0.0       1.0000    Biso     1.000    
         C521      C         0.6337    0.3422    0.2500    0.0       1.0000    Biso     1.000    
         C522      C         0.8663    0.3422    0.2500    0.0       1.0000    Biso     1.000    
         C523      C         0.8663    0.1578    0.2500    0.0       1.0000    Biso     1.000    
         C524      C         0.6337    0.1578    0.2500    0.0       1.0000    Biso     1.000    
         C525      C         0.5922    0.2500    0.1163    0.0       1.0000    Biso     1.000    
         C526      C         0.5922    0.2500    0.3838    0.0       1.0000    Biso     1.000    
         C527      C         0.9078    0.2500    0.3838    0.0       1.0000    Biso     1.000    
         C528      C         0.9078    0.2500    0.1163    0.0       1.0000    Biso     1.000    
         C529      C         0.8838    0.0000    0.3422    0.0       1.0000    Biso     1.000    
         C530      C         0.6163    0.0000    0.3422    0.0       1.0000    Biso     1.000    
         C531      C         0.6163    0.0000    0.1578    0.0       1.0000    Biso     1.000    
         C532      C         0.8838    0.0000    0.1578    0.0       1.0000    Biso     1.000    
         C533      C         0.8422    0.1337    0.2500    0.0       1.0000    Biso     1.000    
         C534      C         0.8422    0.3663    0.2500    0.0       1.0000    Biso     1.000    
         C535      C         0.6578    0.3663    0.2500    0.0       1.0000    Biso     1.000    
         C536      C         0.6578    0.1337    0.2500    0.0       1.0000    Biso     1.000    
         C537      C         0.7500    0.0922    0.3838    0.0       1.0000    Biso     1.000    
         C538      C         0.7500    0.0922    0.1163    0.0       1.0000    Biso     1.000    
         C539      C         0.7500    0.4078    0.1163    0.0       1.0000    Biso     1.000    
         C540      C         0.7500    0.4078    0.3838    0.0       1.0000    Biso     1.000    
         C541      C         0.7500    0.1337    0.1578    0.0       1.0000    Biso     1.000    
         C542      C         0.7500    0.3663    0.1578    0.0       1.0000    Biso     1.000    
         C543      C         0.7500    0.3663    0.3422    0.0       1.0000    Biso     1.000    
         C544      C         0.7500    0.1337    0.3422    0.0       1.0000    Biso     1.000    
         C545      C         0.8838    0.0922    0.2500    0.0       1.0000    Biso     1.000    
         C546      C         0.6163    0.0922    0.2500    0.0       1.0000    Biso     1.000    
         C547      C         0.6163    0.4078    0.2500    0.0       1.0000    Biso     1.000    
         C548      C         0.8838    0.4078    0.2500    0.0       1.0000    Biso     1.000    
         C549      C         0.8422    0.0000    0.1163    0.0       1.0000    Biso     1.000    
         C550      C         0.8422    0.0000    0.3838    0.0       1.0000    Biso     1.000    
         C551      C         0.6578    0.0000    0.3838    0.0       1.0000    Biso     1.000    
         C552      C         0.6578    0.0000    0.1163    0.0       1.0000    Biso     1.000    
         C553      C         0.8838    0.2500    0.0922    0.0       1.0000    Biso     1.000    
         C554      C         0.6163    0.2500    0.0922    0.0       1.0000    Biso     1.000    
         C555      C         0.6163    0.2500    0.4078    0.0       1.0000    Biso     1.000    
         C556      C         0.8838    0.2500    0.4078    0.0       1.0000    Biso     1.000    
         C557      C         0.8422    0.3838    0.0000    0.0       1.0000    Biso     1.000    
         C558      C         0.8422    0.1163    0.0000    0.0       1.0000    Biso     1.000    
         C559      C         0.6578    0.1163    0.0000    0.0       1.0000    Biso     1.000    
         C560      C         0.6578    0.3838    0.0000    0.0       1.0000    Biso     1.000    
         C561      C         0.7500    0.3422    0.1337    0.0       1.0000    Biso     1.000    
         C562      C         0.7500    0.3422    0.3663    0.0       1.0000    Biso     1.000    
         C563      C         0.7500    0.1578    0.3663    0.0       1.0000    Biso     1.000    
         C564      C         0.7500    0.1578    0.1337    0.0       1.0000    Biso     1.000    
         C565      C         0.7500    0.3838    0.4078    0.0       1.0000    Biso     1.000    
         C566      C         0.7500    0.1163    0.4078    0.0       1.0000    Biso     1.000    
         C567      C         0.7500    0.1163    0.0922    0.0       1.0000    Biso     1.000    
         C568      C         0.7500    0.3838    0.0922    0.0       1.0000    Biso     1.000    
         C569      C         0.8838    0.3422    0.0000    0.0       1.0000    Biso     1.000    
         C570      C         0.6163    0.3422    0.0000    0.0       1.0000    Biso     1.000    
         C571      C         0.6163    0.1578    0.0000    0.0       1.0000    Biso     1.000    
         C572      C         0.8838    0.1578    0.0000    0.0       1.0000    Biso     1.000    
         C573      C         0.8422    0.2500    0.3663    0.0       1.0000    Biso     1.000    
         C574      C         0.8422    0.2500    0.1337    0.0       1.0000    Biso     1.000    
         C575      C         0.6578    0.2500    0.1337    0.0       1.0000    Biso     1.000    
         C576      C         0.6578    0.2500    0.3663    0.0       1.0000    Biso     1.000    
         H193      H         0.6395    0.0000    0.0679    0.0       1.0000    Biso     1.000    
         H194      H         0.8605    0.0000    0.0679    0.0       1.0000    Biso     1.000    
         H195      H         0.8605    0.0000    0.4321    0.0       1.0000    Biso     1.000    
         H196      H         0.6395    0.0000    0.4321    0.0       1.0000    Biso     1.000    
         H197      H         0.5679    0.1395    0.0000    0.0       1.0000    Biso     1.000    
         H198      H         0.5679    0.3605    0.0000    0.0       1.0000    Biso     1.000    
         H199      H         0.9321    0.3605    0.0000    0.0       1.0000    Biso     1.000    
         H200      H         0.9321    0.1395    0.0000    0.0       1.0000    Biso     1.000    
         H201      H         0.5000    0.0679    0.1395    0.0       1.0000    Biso     1.000    
         H202      H         0.5000    0.0679    0.3605    0.0       1.0000    Biso     1.000    
         H203      H         0.5000    0.4321    0.3605    0.0       1.0000    Biso     1.000    
         H204      H         0.5000    0.4321    0.1395    0.0       1.0000    Biso     1.000    
         H205      H         0.5000    0.1395    0.4321    0.0       1.0000    Biso     1.000    
         H206      H         0.5000    0.3605    0.4321    0.0       1.0000    Biso     1.000    
         H207      H         0.5000    0.3605    0.0679    0.0       1.0000    Biso     1.000    
         H208      H         0.5000    0.1395    0.0679    0.0       1.0000    Biso     1.000    
         H209      H         0.6395    0.0679    0.0000    0.0       1.0000    Biso     1.000    
         H210      H         0.8605    0.0679    0.0000    0.0       1.0000    Biso     1.000    
         H211      H         0.8605    0.4321    0.0000    0.0       1.0000    Biso     1.000    
         H212      H         0.6395    0.4321    0.0000    0.0       1.0000    Biso     1.000    
         H213      H         0.5679    0.0000    0.3605    0.0       1.0000    Biso     1.000    
         H214      H         0.5679    0.0000    0.1395    0.0       1.0000    Biso     1.000    
         H215      H         0.9321    0.0000    0.1395    0.0       1.0000    Biso     1.000    
         H216      H         0.9321    0.0000    0.3605    0.0       1.0000    Biso     1.000    
         H217      H         0.6395    0.2500    0.3179    0.0       1.0000    Biso     1.000    
         H218      H         0.8605    0.2500    0.3179    0.0       1.0000    Biso     1.000    
         H219      H         0.8605    0.2500    0.1821    0.0       1.0000    Biso     1.000    
         H220      H         0.6395    0.2500    0.1821    0.0       1.0000    Biso     1.000    
         H221      H         0.5679    0.3895    0.2500    0.0       1.0000    Biso     1.000    
         H222      H         0.5679    0.1105    0.2500    0.0       1.0000    Biso     1.000    
         H223      H         0.9321    0.1105    0.2500    0.0       1.0000    Biso     1.000    
         H224      H         0.9321    0.3895    0.2500    0.0       1.0000    Biso     1.000    
         H225      H         0.5000    0.3179    0.3895    0.0       1.0000    Biso     1.000    
         H226      H         0.5000    0.3179    0.1105    0.0       1.0000    Biso     1.000    
         H227      H         0.5000    0.1821    0.1105    0.0       1.0000    Biso     1.000    
         H228      H         0.5000    0.1821    0.3895    0.0       1.0000    Biso     1.000    
         H229      H         0.5000    0.3895    0.1821    0.0       1.0000    Biso     1.000    
         H230      H         0.5000    0.1105    0.1821    0.0       1.0000    Biso     1.000    
         H231      H         0.5000    0.1105    0.3179    0.0       1.0000    Biso     1.000    
         H232      H         0.5000    0.3895    0.3179    0.0       1.0000    Biso     1.000    
         H233      H         0.6395    0.3179    0.2500    0.0       1.0000    Biso     1.000    
         H234      H         0.8605    0.3179    0.2500    0.0       1.0000    Biso     1.000    
         H235      H         0.8605    0.1821    0.2500    0.0       1.0000    Biso     1.000    
         H236      H         0.6395    0.1821    0.2500    0.0       1.0000    Biso     1.000    
         H237      H         0.5679    0.2500    0.1105    0.0       1.0000    Biso     1.000    
         H238      H         0.5679    0.2500    0.3895    0.0       1.0000    Biso     1.000    
         H239      H         0.9321    0.2500    0.3895    0.0       1.0000    Biso     1.000    
         H240      H         0.9321    0.2500    0.1105    0.0       1.0000    Biso     1.000    
         H241      H         0.8895    0.0000    0.3179    0.0       1.0000    Biso     1.000    
         H242      H         0.6105    0.0000    0.3179    0.0       1.0000    Biso     1.000    
         H243      H         0.6105    0.0000    0.1821    0.0       1.0000    Biso     1.000    
         H244      H         0.8895    0.0000    0.1821    0.0       1.0000    Biso     1.000    
         H245      H         0.8179    0.1395    0.2500    0.0       1.0000    Biso     1.000    
         H246      H         0.8179    0.3605    0.2500    0.0       1.0000    Biso     1.000    
         H247      H         0.6821    0.3605    0.2500    0.0       1.0000    Biso     1.000    
         H248      H         0.6821    0.1395    0.2500    0.0       1.0000    Biso     1.000    
         H249      H         0.7500    0.0679    0.3895    0.0       1.0000    Biso     1.000    
         H250      H         0.7500    0.0679    0.1105    0.0       1.0000    Biso     1.000    
         H251      H         0.7500    0.4321    0.1105    0.0       1.0000    Biso     1.000    
         H252      H         0.7500    0.4321    0.3895    0.0       1.0000    Biso     1.000    
         H253      H         0.7500    0.1395    0.1821    0.0       1.0000    Biso     1.000    
         H254      H         0.7500    0.3605    0.1821    0.0       1.0000    Biso     1.000    
         H255      H         0.7500    0.3605    0.3179    0.0       1.0000    Biso     1.000    
         H256      H         0.7500    0.1395    0.3179    0.0       1.0000    Biso     1.000    
         H257      H         0.8895    0.0679    0.2500    0.0       1.0000    Biso     1.000    
         H258      H         0.6105    0.0679    0.2500    0.0       1.0000    Biso     1.000    
         H259      H         0.6105    0.4321    0.2500    0.0       1.0000    Biso     1.000    
         H260      H         0.8895    0.4321    0.2500    0.0       1.0000    Biso     1.000    
         H261      H         0.8179    0.0000    0.1105    0.0       1.0000    Biso     1.000    
         H262      H         0.8179    0.0000    0.3895    0.0       1.0000    Biso     1.000    
         H263      H         0.6821    0.0000    0.3895    0.0       1.0000    Biso     1.000    
         H264      H         0.6821    0.0000    0.1105    0.0       1.0000    Biso     1.000    
         H265      H         0.8895    0.2500    0.0679    0.0       1.0000    Biso     1.000    
         H266      H         0.6105    0.2500    0.0679    0.0       1.0000    Biso     1.000    
         H267      H         0.6105    0.2500    0.4321    0.0       1.0000    Biso     1.000    
         H268      H         0.8895    0.2500    0.4321    0.0       1.0000    Biso     1.000    
         H269      H         0.8179    0.3895    0.0000    0.0       1.0000    Biso     1.000    
         H270      H         0.8179    0.1105    0.0000    0.0       1.0000    Biso     1.000    
         H271      H         0.6821    0.1105    0.0000    0.0       1.0000    Biso     1.000    
         H272      H         0.6821    0.3895    0.0000    0.0       1.0000    Biso     1.000    
         H273      H         0.7500    0.3179    0.1395    0.0       1.0000    Biso     1.000    
         H274      H         0.7500    0.3179    0.3605    0.0       1.0000    Biso     1.000    
         H275      H         0.7500    0.1821    0.3605    0.0       1.0000    Biso     1.000    
         H276      H         0.7500    0.1821    0.1395    0.0       1.0000    Biso     1.000    
         H277      H         0.7500    0.3895    0.4321    0.0       1.0000    Biso     1.000    
         H278      H         0.7500    0.1105    0.4321    0.0       1.0000    Biso     1.000    
         H279      H         0.7500    0.1105    0.0679    0.0       1.0000    Biso     1.000    
         H280      H         0.7500    0.3895    0.0679    0.0       1.0000    Biso     1.000    
         H281      H         0.8895    0.3179    0.0000    0.0       1.0000    Biso     1.000    
         H282      H         0.6105    0.3179    0.0000    0.0       1.0000    Biso     1.000    
         H283      H         0.6105    0.1821    0.0000    0.0       1.0000    Biso     1.000    
         H284      H         0.8895    0.1821    0.0000    0.0       1.0000    Biso     1.000    
         H285      H         0.8179    0.2500    0.3605    0.0       1.0000    Biso     1.000    
         H286      H         0.8179    0.2500    0.1395    0.0       1.0000    Biso     1.000    
         H287      H         0.6821    0.2500    0.1395    0.0       1.0000    Biso     1.000    
         H288      H         0.6821    0.2500    0.3605    0.0       1.0000    Biso     1.000    
         Zr36      Zr        0.5000    0.5599    0.0000    0.0       .         .        .        
         Zr37      Zr        0.5000    0.9401    0.0000    0.0       .         .        .        
         Zr38      Zr        0.5000    0.5000    0.0600    0.0       .         .        .        
         Zr39      Zr        0.5000    0.5000    0.4401    0.0       .         .        .        
         Zr40      Zr        0.5599    0.7500    0.2500    0.0       .         .        .        
         Zr41      Zr        0.5000    0.8099    0.2500    0.0       .         .        .        
         Zr42      Zr        0.7500    0.5599    0.2500    0.0       .         .        .        
         Zr43      Zr        0.7500    0.9401    0.2500    0.0       .         .        .        
         Zr44      Zr        0.7500    0.5000    0.3100    0.0       .         .        .        
         Zr45      Zr        0.8099    0.7500    0.0000    0.0       .         .        .        
         Zr46      Zr        0.6900    0.7500    0.0000    0.0       .         .        .        
         Zr47      Zr        0.7500    0.6900    0.0000    0.0       .         .        .        
         Zr48      Zr        0.7500    0.7500    0.4401    0.0       .         .        .        
         O385      O         0.5852    0.5000    0.0477    0.0       1.0000    Biso     1.000    
         O386      O         0.9148    0.5000    0.0477    0.0       1.0000    Biso     1.000    
         O387      O         0.9148    0.5000    0.4524    0.0       1.0000    Biso     1.000    
         O388      O         0.5852    0.5000    0.4524    0.0       1.0000    Biso     1.000    
         O389      O         0.5477    0.5852    0.0000    0.0       1.0000    Biso     1.000    
         O390      O         0.5477    0.9148    0.0000    0.0       1.0000    Biso     1.000    
         O391      O         0.9524    0.9148    0.0000    0.0       1.0000    Biso     1.000    
         O392      O         0.9524    0.5852    0.0000    0.0       1.0000    Biso     1.000    
         O393      O         0.5000    0.5477    0.0852    0.0       1.0000    Biso     1.000    
         O394      O         0.5000    0.5477    0.4148    0.0       1.0000    Biso     1.000    
         O395      O         0.5000    0.9524    0.4148    0.0       1.0000    Biso     1.000    
         O396      O         0.5000    0.9524    0.0852    0.0       1.0000    Biso     1.000    
         O397      O         0.5000    0.5852    0.4524    0.0       1.0000    Biso     1.000    
         O398      O         0.5000    0.9148    0.4524    0.0       1.0000    Biso     1.000    
         O399      O         0.5000    0.9148    0.0477    0.0       1.0000    Biso     1.000    
         O400      O         0.5000    0.5852    0.0477    0.0       1.0000    Biso     1.000    
         O401      O         0.5852    0.5477    0.0000    0.0       1.0000    Biso     1.000    
         O402      O         0.9148    0.5477    0.0000    0.0       1.0000    Biso     1.000    
         O403      O         0.9148    0.9524    0.0000    0.0       1.0000    Biso     1.000    
         O404      O         0.5852    0.9524    0.0000    0.0       1.0000    Biso     1.000    
         O405      O         0.5477    0.5000    0.4148    0.0       1.0000    Biso     1.000    
         O406      O         0.5477    0.5000    0.0852    0.0       1.0000    Biso     1.000    
         O407      O         0.9524    0.5000    0.0852    0.0       1.0000    Biso     1.000    
         O408      O         0.9524    0.5000    0.4148    0.0       1.0000    Biso     1.000    
         O409      O         0.5852    0.7500    0.2977    0.0       1.0000    Biso     1.000    
         O410      O         0.9148    0.7500    0.2977    0.0       1.0000    Biso     1.000    
         O411      O         0.9148    0.7500    0.2023    0.0       1.0000    Biso     1.000    
         O412      O         0.5852    0.7500    0.2023    0.0       1.0000    Biso     1.000    
         O413      O         0.5477    0.8352    0.2500    0.0       1.0000    Biso     1.000    
         O414      O         0.5477    0.6648    0.2500    0.0       1.0000    Biso     1.000    
         O415      O         0.9524    0.6648    0.2500    0.0       1.0000    Biso     1.000    
         O416      O         0.9524    0.8352    0.2500    0.0       1.0000    Biso     1.000    
         O417      O         0.5000    0.7977    0.3352    0.0       1.0000    Biso     1.000    
         O418      O         0.5000    0.7977    0.1648    0.0       1.0000    Biso     1.000    
         O419      O         0.5000    0.7023    0.1648    0.0       1.0000    Biso     1.000    
         O420      O         0.5000    0.7023    0.3352    0.0       1.0000    Biso     1.000    
         O421      O         0.5000    0.8352    0.2023    0.0       1.0000    Biso     1.000    
         O422      O         0.5000    0.6648    0.2023    0.0       1.0000    Biso     1.000    
         O423      O         0.5000    0.6648    0.2977    0.0       1.0000    Biso     1.000    
         O424      O         0.5000    0.8352    0.2977    0.0       1.0000    Biso     1.000    
         O425      O         0.5852    0.7977    0.2500    0.0       1.0000    Biso     1.000    
         O426      O         0.9148    0.7977    0.2500    0.0       1.0000    Biso     1.000    
         O427      O         0.9148    0.7023    0.2500    0.0       1.0000    Biso     1.000    
         O428      O         0.5852    0.7023    0.2500    0.0       1.0000    Biso     1.000    
         O429      O         0.5477    0.7500    0.1648    0.0       1.0000    Biso     1.000    
         O430      O         0.5477    0.7500    0.3352    0.0       1.0000    Biso     1.000    
         O431      O         0.9524    0.7500    0.3352    0.0       1.0000    Biso     1.000    
         O432      O         0.9524    0.7500    0.1648    0.0       1.0000    Biso     1.000    
         O433      O         0.8352    0.5000    0.2977    0.0       1.0000    Biso     1.000    
         O434      O         0.6648    0.5000    0.2977    0.0       1.0000    Biso     1.000    
         O435      O         0.6648    0.5000    0.2023    0.0       1.0000    Biso     1.000    
         O436      O         0.8352    0.5000    0.2023    0.0       1.0000    Biso     1.000    
         O437      O         0.7977    0.5852    0.2500    0.0       1.0000    Biso     1.000    
         O438      O         0.7977    0.9148    0.2500    0.0       1.0000    Biso     1.000    
         O439      O         0.7023    0.9148    0.2500    0.0       1.0000    Biso     1.000    
         O440      O         0.7023    0.5852    0.2500    0.0       1.0000    Biso     1.000    
         O441      O         0.7500    0.5477    0.3352    0.0       1.0000    Biso     1.000    
         O442      O         0.7500    0.5477    0.1648    0.0       1.0000    Biso     1.000    
         O443      O         0.7500    0.9524    0.1648    0.0       1.0000    Biso     1.000    
         O444      O         0.7500    0.9524    0.3352    0.0       1.0000    Biso     1.000    
         O445      O         0.7500    0.5852    0.2023    0.0       1.0000    Biso     1.000    
         O446      O         0.7500    0.9148    0.2023    0.0       1.0000    Biso     1.000    
         O447      O         0.7500    0.9148    0.2977    0.0       1.0000    Biso     1.000    
         O448      O         0.7500    0.5852    0.2977    0.0       1.0000    Biso     1.000    
         O449      O         0.8352    0.5477    0.2500    0.0       1.0000    Biso     1.000    
         O450      O         0.6648    0.5477    0.2500    0.0       1.0000    Biso     1.000    
         O451      O         0.6648    0.9524    0.2500    0.0       1.0000    Biso     1.000    
         O452      O         0.8352    0.9524    0.2500    0.0       1.0000    Biso     1.000    
         O453      O         0.7977    0.5000    0.1648    0.0       1.0000    Biso     1.000    
         O454      O         0.7977    0.5000    0.3352    0.0       1.0000    Biso     1.000    
         O455      O         0.7023    0.5000    0.3352    0.0       1.0000    Biso     1.000    
         O456      O         0.7023    0.5000    0.1648    0.0       1.0000    Biso     1.000    
         O457      O         0.8352    0.7500    0.0477    0.0       1.0000    Biso     1.000    
         O458      O         0.6648    0.7500    0.0477    0.0       1.0000    Biso     1.000    
         O459      O         0.6648    0.7500    0.4524    0.0       1.0000    Biso     1.000    
         O460      O         0.8352    0.7500    0.4524    0.0       1.0000    Biso     1.000    
         O461      O         0.7977    0.8352    0.0000    0.0       1.0000    Biso     1.000    
         O462      O         0.7977    0.6648    0.0000    0.0       1.0000    Biso     1.000    
         O463      O         0.7023    0.6648    0.0000    0.0       1.0000    Biso     1.000    
         O464      O         0.7023    0.8352    0.0000    0.0       1.0000    Biso     1.000    
         O465      O         0.7500    0.7977    0.0852    0.0       1.0000    Biso     1.000    
         O466      O         0.7500    0.7977    0.4148    0.0       1.0000    Biso     1.000    
         O467      O         0.7500    0.7023    0.4148    0.0       1.0000    Biso     1.000    
         O468      O         0.7500    0.7023    0.0852    0.0       1.0000    Biso     1.000    
         O469      O         0.7500    0.8352    0.4524    0.0       1.0000    Biso     1.000    
         O470      O         0.7500    0.6648    0.4524    0.0       1.0000    Biso     1.000    
         O471      O         0.7500    0.6648    0.0477    0.0       1.0000    Biso     1.000    
         O472      O         0.7500    0.8352    0.0477    0.0       1.0000    Biso     1.000    
         O473      O         0.8352    0.7977    0.0000    0.0       1.0000    Biso     1.000    
         O474      O         0.6648    0.7977    0.0000    0.0       1.0000    Biso     1.000    
         O475      O         0.6648    0.7023    0.0000    0.0       1.0000    Biso     1.000    
         O476      O         0.8352    0.7023    0.0000    0.0       1.0000    Biso     1.000    
         O477      O         0.7977    0.7500    0.4148    0.0       1.0000    Biso     1.000    
         O478      O         0.7977    0.7500    0.0852    0.0       1.0000    Biso     1.000    
         O479      O         0.7023    0.7500    0.0852    0.0       1.0000    Biso     1.000    
         O480      O         0.7023    0.7500    0.4148    0.0       1.0000    Biso     1.000    
         O481      O         0.5280    0.9720    0.4720    0.0       .         .        .        
         O482      O         0.9720    0.5280    0.4720    0.0       .         .        .        
         O483      O         0.9720    0.9720    0.0280    0.0       .         .        .        
         O484      O         0.5280    0.5280    0.0280    0.0       .         .        .        
         O485      O         0.9720    0.5280    0.0280    0.0       .         .        .        
         O486      O         0.5280    0.9720    0.0280    0.0       .         .        .        
         O487      O         0.9720    0.9720    0.4720    0.0       .         .        .        
         O488      O         0.5280    0.5280    0.4720    0.0       .         .        .        
         O489      O         0.5280    0.7220    0.2220    0.0       .         .        .        
         O490      O         0.9720    0.7780    0.2220    0.0       .         .        .        
         O491      O         0.9720    0.7220    0.2780    0.0       .         .        .        
         O492      O         0.5280    0.7780    0.2780    0.0       .         .        .        
         O493      O         0.9720    0.7780    0.2780    0.0       .         .        .        
         O494      O         0.5280    0.7220    0.2780    0.0       .         .        .        
         O495      O         0.9720    0.7220    0.2220    0.0       .         .        .        
         O496      O         0.5280    0.7780    0.2220    0.0       .         .        .        
         O497      O         0.7780    0.9720    0.2220    0.0       .         .        .        
         O498      O         0.7220    0.5280    0.2220    0.0       .         .        .        
         O499      O         0.7220    0.9720    0.2780    0.0       .         .        .        
         O500      O         0.7780    0.5280    0.2780    0.0       .         .        .        
         O501      O         0.7220    0.5280    0.2780    0.0       .         .        .        
         O502      O         0.7780    0.9720    0.2780    0.0       .         .        .        
         O503      O         0.7220    0.9720    0.2220    0.0       .         .        .        
         O504      O         0.7780    0.5280    0.2220    0.0       .         .        .        
         O505      O         0.7780    0.7220    0.4720    0.0       .         .        .        
         O506      O         0.7220    0.7780    0.4720    0.0       .         .        .        
         O507      O         0.7220    0.7220    0.0280    0.0       .         .        .        
         O508      O         0.7780    0.7780    0.0280    0.0       .         .        .        
         O509      O         0.7220    0.7780    0.0280    0.0       .         .        .        
         O510      O         0.7780    0.7220    0.0280    0.0       .         .        .        
         O511      O         0.7220    0.7220    0.4720    0.0       .         .        .        
         O512      O         0.7780    0.7780    0.4720    0.0       .         .        .        
         C577      C         0.5768    0.5000    0.4232    0.0       1.0000    Biso     1.000    
         C578      C         0.9232    0.5000    0.4232    0.0       1.0000    Biso     1.000    
         C579      C         0.9232    0.5000    0.0768    0.0       1.0000    Biso     1.000    
         C580      C         0.5768    0.5000    0.0768    0.0       1.0000    Biso     1.000    
         C581      C         0.9232    0.5768    0.0000    0.0       1.0000    Biso     1.000    
         C582      C         0.9232    0.9232    0.0000    0.0       1.0000    Biso     1.000    
         C583      C         0.5768    0.9232    0.0000    0.0       1.0000    Biso     1.000    
         C584      C         0.5768    0.5768    0.0000    0.0       1.0000    Biso     1.000    
         C585      C         0.5000    0.9232    0.0768    0.0       1.0000    Biso     1.000    
         C586      C         0.5000    0.9232    0.4232    0.0       1.0000    Biso     1.000    
         C587      C         0.5000    0.5768    0.4232    0.0       1.0000    Biso     1.000    
         C588      C         0.5000    0.5768    0.0768    0.0       1.0000    Biso     1.000    
         C589      C         0.5768    0.7500    0.1732    0.0       1.0000    Biso     1.000    
         C590      C         0.9232    0.7500    0.1732    0.0       1.0000    Biso     1.000    
         C591      C         0.9232    0.7500    0.3268    0.0       1.0000    Biso     1.000    
         C592      C         0.5768    0.7500    0.3268    0.0       1.0000    Biso     1.000    
         C593      C         0.9232    0.8268    0.2500    0.0       1.0000    Biso     1.000    
         C594      C         0.9232    0.6732    0.2500    0.0       1.0000    Biso     1.000    
         C595      C         0.5768    0.6732    0.2500    0.0       1.0000    Biso     1.000    
         C596      C         0.5768    0.8268    0.2500    0.0       1.0000    Biso     1.000    
         C597      C         0.5000    0.6732    0.3268    0.0       1.0000    Biso     1.000    
         C598      C         0.5000    0.6732    0.1732    0.0       1.0000    Biso     1.000    
         C599      C         0.5000    0.8268    0.1732    0.0       1.0000    Biso     1.000    
         C600      C         0.5000    0.8268    0.3268    0.0       1.0000    Biso     1.000    
         C601      C         0.8268    0.5000    0.1732    0.0       1.0000    Biso     1.000    
         C602      C         0.6732    0.5000    0.1732    0.0       1.0000    Biso     1.000    
         C603      C         0.6732    0.5000    0.3268    0.0       1.0000    Biso     1.000    
         C604      C         0.8268    0.5000    0.3268    0.0       1.0000    Biso     1.000    
         C605      C         0.6732    0.5768    0.2500    0.0       1.0000    Biso     1.000    
         C606      C         0.6732    0.9232    0.2500    0.0       1.0000    Biso     1.000    
         C607      C         0.8268    0.9232    0.2500    0.0       1.0000    Biso     1.000    
         C608      C         0.8268    0.5768    0.2500    0.0       1.0000    Biso     1.000    
         C609      C         0.7500    0.9232    0.3268    0.0       1.0000    Biso     1.000    
         C610      C         0.7500    0.9232    0.1732    0.0       1.0000    Biso     1.000    
         C611      C         0.7500    0.5768    0.1732    0.0       1.0000    Biso     1.000    
         C612      C         0.7500    0.5768    0.3268    0.0       1.0000    Biso     1.000    
         C613      C         0.8268    0.7500    0.4232    0.0       1.0000    Biso     1.000    
         C614      C         0.6732    0.7500    0.4232    0.0       1.0000    Biso     1.000    
         C615      C         0.6732    0.7500    0.0768    0.0       1.0000    Biso     1.000    
         C616      C         0.8268    0.7500    0.0768    0.0       1.0000    Biso     1.000    
         C617      C         0.6732    0.8268    0.0000    0.0       1.0000    Biso     1.000    
         C618      C         0.6732    0.6732    0.0000    0.0       1.0000    Biso     1.000    
         C619      C         0.8268    0.6732    0.0000    0.0       1.0000    Biso     1.000    
         C620      C         0.8268    0.8268    0.0000    0.0       1.0000    Biso     1.000    
         C621      C         0.7500    0.6732    0.0768    0.0       1.0000    Biso     1.000    
         C622      C         0.7500    0.6732    0.4232    0.0       1.0000    Biso     1.000    
         C623      C         0.7500    0.8268    0.4232    0.0       1.0000    Biso     1.000    
         C624      C         0.7500    0.8268    0.0768    0.0       1.0000    Biso     1.000    
         C625      C         0.6025    0.5000    0.1025    0.0       1.0000    Biso     1.000    
         C626      C         0.8975    0.5000    0.1025    0.0       1.0000    Biso     1.000    
         C627      C         0.8975    0.5000    0.3975    0.0       1.0000    Biso     1.000    
         C628      C         0.6025    0.5000    0.3975    0.0       1.0000    Biso     1.000    
         C629      C         0.6025    0.6025    0.0000    0.0       1.0000    Biso     1.000    
         C630      C         0.6025    0.8975    0.0000    0.0       1.0000    Biso     1.000    
         C631      C         0.8975    0.8975    0.0000    0.0       1.0000    Biso     1.000    
         C632      C         0.8975    0.6025    0.0000    0.0       1.0000    Biso     1.000    
         C633      C         0.5000    0.6025    0.1025    0.0       1.0000    Biso     1.000    
         C634      C         0.5000    0.6025    0.3975    0.0       1.0000    Biso     1.000    
         C635      C         0.5000    0.8975    0.3975    0.0       1.0000    Biso     1.000    
         C636      C         0.5000    0.8975    0.1025    0.0       1.0000    Biso     1.000    
         C637      C         0.6025    0.7500    0.3525    0.0       1.0000    Biso     1.000    
         C638      C         0.8975    0.7500    0.3525    0.0       1.0000    Biso     1.000    
         C639      C         0.8975    0.7500    0.1475    0.0       1.0000    Biso     1.000    
         C640      C         0.6025    0.7500    0.1475    0.0       1.0000    Biso     1.000    
         C641      C         0.6025    0.8525    0.2500    0.0       1.0000    Biso     1.000    
         C642      C         0.6025    0.6475    0.2500    0.0       1.0000    Biso     1.000    
         C643      C         0.8975    0.6475    0.2500    0.0       1.0000    Biso     1.000    
         C644      C         0.8975    0.8525    0.2500    0.0       1.0000    Biso     1.000    
         C645      C         0.5000    0.8525    0.3525    0.0       1.0000    Biso     1.000    
         C646      C         0.5000    0.8525    0.1475    0.0       1.0000    Biso     1.000    
         C647      C         0.5000    0.6475    0.1475    0.0       1.0000    Biso     1.000    
         C648      C         0.5000    0.6475    0.3525    0.0       1.0000    Biso     1.000    
         C649      C         0.8525    0.5000    0.3525    0.0       1.0000    Biso     1.000    
         C650      C         0.6475    0.5000    0.3525    0.0       1.0000    Biso     1.000    
         C651      C         0.6475    0.5000    0.1475    0.0       1.0000    Biso     1.000    
         C652      C         0.8525    0.5000    0.1475    0.0       1.0000    Biso     1.000    
         C653      C         0.8525    0.6025    0.2500    0.0       1.0000    Biso     1.000    
         C654      C         0.8525    0.8975    0.2500    0.0       1.0000    Biso     1.000    
         C655      C         0.6475    0.8975    0.2500    0.0       1.0000    Biso     1.000    
         C656      C         0.6475    0.6025    0.2500    0.0       1.0000    Biso     1.000    
         C657      C         0.7500    0.6025    0.3525    0.0       1.0000    Biso     1.000    
         C658      C         0.7500    0.6025    0.1475    0.0       1.0000    Biso     1.000    
         C659      C         0.7500    0.8975    0.1475    0.0       1.0000    Biso     1.000    
         C660      C         0.7500    0.8975    0.3525    0.0       1.0000    Biso     1.000    
         C661      C         0.8525    0.7500    0.1025    0.0       1.0000    Biso     1.000    
         C662      C         0.6475    0.7500    0.1025    0.0       1.0000    Biso     1.000    
         C663      C         0.6475    0.7500    0.3975    0.0       1.0000    Biso     1.000    
         C664      C         0.8525    0.7500    0.3975    0.0       1.0000    Biso     1.000    
         C665      C         0.8525    0.8525    0.0000    0.0       1.0000    Biso     1.000    
         C666      C         0.8525    0.6475    0.0000    0.0       1.0000    Biso     1.000    
         C667      C         0.6475    0.6475    0.0000    0.0       1.0000    Biso     1.000    
         C668      C         0.6475    0.8525    0.0000    0.0       1.0000    Biso     1.000    
         C669      C         0.7500    0.8525    0.1025    0.0       1.0000    Biso     1.000    
         C670      C         0.7500    0.8525    0.3975    0.0       1.0000    Biso     1.000    
         C671      C         0.7500    0.6475    0.3975    0.0       1.0000    Biso     1.000    
         C672      C         0.7500    0.6475    0.1025    0.0       1.0000    Biso     1.000    
         C673      C         0.6337    0.5000    0.0922    0.0       1.0000    Biso     1.000    
         C674      C         0.8663    0.5000    0.0922    0.0       1.0000    Biso     1.000    
         C675      C         0.8663    0.5000    0.4078    0.0       1.0000    Biso     1.000    
         C676      C         0.6337    0.5000    0.4078    0.0       1.0000    Biso     1.000    
         C677      C         0.5922    0.6337    0.0000    0.0       1.0000    Biso     1.000    
         C678      C         0.5922    0.8663    0.0000    0.0       1.0000    Biso     1.000    
         C679      C         0.9078    0.8663    0.0000    0.0       1.0000    Biso     1.000    
         C680      C         0.9078    0.6337    0.0000    0.0       1.0000    Biso     1.000    
         C681      C         0.5000    0.5922    0.1337    0.0       1.0000    Biso     1.000    
         C682      C         0.5000    0.5922    0.3663    0.0       1.0000    Biso     1.000    
         C683      C         0.5000    0.9078    0.3663    0.0       1.0000    Biso     1.000    
         C684      C         0.5000    0.9078    0.1337    0.0       1.0000    Biso     1.000    
         C685      C         0.5000    0.6337    0.4078    0.0       1.0000    Biso     1.000    
         C686      C         0.5000    0.8663    0.4078    0.0       1.0000    Biso     1.000    
         C687      C         0.5000    0.8663    0.0922    0.0       1.0000    Biso     1.000    
         C688      C         0.5000    0.6337    0.0922    0.0       1.0000    Biso     1.000    
         C689      C         0.6337    0.5922    0.0000    0.0       1.0000    Biso     1.000    
         C690      C         0.8663    0.5922    0.0000    0.0       1.0000    Biso     1.000    
         C691      C         0.8663    0.9078    0.0000    0.0       1.0000    Biso     1.000    
         C692      C         0.6337    0.9078    0.0000    0.0       1.0000    Biso     1.000    
         C693      C         0.5922    0.5000    0.3663    0.0       1.0000    Biso     1.000    
         C694      C         0.5922    0.5000    0.1337    0.0       1.0000    Biso     1.000    
         C695      C         0.9078    0.5000    0.1337    0.0       1.0000    Biso     1.000    
         C696      C         0.9078    0.5000    0.3663    0.0       1.0000    Biso     1.000    
         C697      C         0.6337    0.7500    0.3422    0.0       1.0000    Biso     1.000    
         C698      C         0.8663    0.7500    0.3422    0.0       1.0000    Biso     1.000    
         C699      C         0.8663    0.7500    0.1578    0.0       1.0000    Biso     1.000    
         C700      C         0.6337    0.7500    0.1578    0.0       1.0000    Biso     1.000    
         C701      C         0.5922    0.8838    0.2500    0.0       1.0000    Biso     1.000    
         C702      C         0.5922    0.6163    0.2500    0.0       1.0000    Biso     1.000    
         C703      C         0.9078    0.6163    0.2500    0.0       1.0000    Biso     1.000    
         C704      C         0.9078    0.8838    0.2500    0.0       1.0000    Biso     1.000    
         C705      C         0.5000    0.8422    0.3838    0.0       1.0000    Biso     1.000    
         C706      C         0.5000    0.8422    0.1163    0.0       1.0000    Biso     1.000    
         C707      C         0.5000    0.6578    0.1163    0.0       1.0000    Biso     1.000    
         C708      C         0.5000    0.6578    0.3838    0.0       1.0000    Biso     1.000    
         C709      C         0.5000    0.8838    0.1578    0.0       1.0000    Biso     1.000    
         C710      C         0.5000    0.6163    0.1578    0.0       1.0000    Biso     1.000    
         C711      C         0.5000    0.6163    0.3422    0.0       1.0000    Biso     1.000    
         C712      C         0.5000    0.8838    0.3422    0.0       1.0000    Biso     1.000    
         C713      C         0.6337    0.8422    0.2500    0.0       1.0000    Biso     1.000    
         C714      C         0.8663    0.8422    0.2500    0.0       1.0000    Biso     1.000    
         C715      C         0.8663    0.6578    0.2500    0.0       1.0000    Biso     1.000    
         C716      C         0.6337    0.6578    0.2500    0.0       1.0000    Biso     1.000    
         C717      C         0.5922    0.7500    0.1163    0.0       1.0000    Biso     1.000    
         C718      C         0.5922    0.7500    0.3838    0.0       1.0000    Biso     1.000    
         C719      C         0.9078    0.7500    0.3838    0.0       1.0000    Biso     1.000    
         C720      C         0.9078    0.7500    0.1163    0.0       1.0000    Biso     1.000    
         C721      C         0.8838    0.5000    0.3422    0.0       1.0000    Biso     1.000    
         C722      C         0.6163    0.5000    0.3422    0.0       1.0000    Biso     1.000    
         C723      C         0.6163    0.5000    0.1578    0.0       1.0000    Biso     1.000    
         C724      C         0.8838    0.5000    0.1578    0.0       1.0000    Biso     1.000    
         C725      C         0.8422    0.6337    0.2500    0.0       1.0000    Biso     1.000    
         C726      C         0.8422    0.8663    0.2500    0.0       1.0000    Biso     1.000    
         C727      C         0.6578    0.8663    0.2500    0.0       1.0000    Biso     1.000    
         C728      C         0.6578    0.6337    0.2500    0.0       1.0000    Biso     1.000    
         C729      C         0.7500    0.5922    0.3838    0.0       1.0000    Biso     1.000    
         C730      C         0.7500    0.5922    0.1163    0.0       1.0000    Biso     1.000    
         C731      C         0.7500    0.9078    0.1163    0.0       1.0000    Biso     1.000    
         C732      C         0.7500    0.9078    0.3838    0.0       1.0000    Biso     1.000    
         C733      C         0.7500    0.6337    0.1578    0.0       1.0000    Biso     1.000    
         C734      C         0.7500    0.8663    0.1578    0.0       1.0000    Biso     1.000    
         C735      C         0.7500    0.8663    0.3422    0.0       1.0000    Biso     1.000    
         C736      C         0.7500    0.6337    0.3422    0.0       1.0000    Biso     1.000    
         C737      C         0.8838    0.5922    0.2500    0.0       1.0000    Biso     1.000    
         C738      C         0.6163    0.5922    0.2500    0.0       1.0000    Biso     1.000    
         C739      C         0.6163    0.9078    0.2500    0.0       1.0000    Biso     1.000    
         C740      C         0.8838    0.9078    0.2500    0.0       1.0000    Biso     1.000    
         C741      C         0.8422    0.5000    0.1163    0.0       1.0000    Biso     1.000    
         C742      C         0.8422    0.5000    0.3838    0.0       1.0000    Biso     1.000    
         C743      C         0.6578    0.5000    0.3838    0.0       1.0000    Biso     1.000    
         C744      C         0.6578    0.5000    0.1163    0.0       1.0000    Biso     1.000    
         C745      C         0.8838    0.7500    0.0922    0.0       1.0000    Biso     1.000    
         C746      C         0.6163    0.7500    0.0922    0.0       1.0000    Biso     1.000    
         C747      C         0.6163    0.7500    0.4078    0.0       1.0000    Biso     1.000    
         C748      C         0.8838    0.7500    0.4078    0.0       1.0000    Biso     1.000    
         C749      C         0.8422    0.8838    0.0000    0.0       1.0000    Biso     1.000    
         C750      C         0.8422    0.6163    0.0000    0.0       1.0000    Biso     1.000    
         C751      C         0.6578    0.6163    0.0000    0.0       1.0000    Biso     1.000    
         C752      C         0.6578    0.8838    0.0000    0.0       1.0000    Biso     1.000    
         C753      C         0.7500    0.8422    0.1337    0.0       1.0000    Biso     1.000    
         C754      C         0.7500    0.8422    0.3663    0.0       1.0000    Biso     1.000    
         C755      C         0.7500    0.6578    0.3663    0.0       1.0000    Biso     1.000    
         C756      C         0.7500    0.6578    0.1337    0.0       1.0000    Biso     1.000    
         C757      C         0.7500    0.8838    0.4078    0.0       1.0000    Biso     1.000    
         C758      C         0.7500    0.6163    0.4078    0.0       1.0000    Biso     1.000    
         C759      C         0.7500    0.6163    0.0922    0.0       1.0000    Biso     1.000    
         C760      C         0.7500    0.8838    0.0922    0.0       1.0000    Biso     1.000    
         C761      C         0.8838    0.8422    0.0000    0.0       1.0000    Biso     1.000    
         C762      C         0.6163    0.8422    0.0000    0.0       1.0000    Biso     1.000    
         C763      C         0.6163    0.6578    0.0000    0.0       1.0000    Biso     1.000    
         C764      C         0.8838    0.6578    0.0000    0.0       1.0000    Biso     1.000    
         C765      C         0.8422    0.7500    0.3663    0.0       1.0000    Biso     1.000    
         C766      C         0.8422    0.7500    0.1337    0.0       1.0000    Biso     1.000    
         C767      C         0.6578    0.7500    0.1337    0.0       1.0000    Biso     1.000    
         C768      C         0.6578    0.7500    0.3663    0.0       1.0000    Biso     1.000    
         H289      H         0.6395    0.5000    0.0679    0.0       1.0000    Biso     1.000    
         H290      H         0.8605    0.5000    0.0679    0.0       1.0000    Biso     1.000    
         H291      H         0.8605    0.5000    0.4321    0.0       1.0000    Biso     1.000    
         H292      H         0.6395    0.5000    0.4321    0.0       1.0000    Biso     1.000    
         H293      H         0.5679    0.6395    0.0000    0.0       1.0000    Biso     1.000    
         H294      H         0.5679    0.8605    0.0000    0.0       1.0000    Biso     1.000    
         H295      H         0.9321    0.8605    0.0000    0.0       1.0000    Biso     1.000    
         H296      H         0.9321    0.6395    0.0000    0.0       1.0000    Biso     1.000    
         H297      H         0.5000    0.5679    0.1395    0.0       1.0000    Biso     1.000    
         H298      H         0.5000    0.5679    0.3605    0.0       1.0000    Biso     1.000    
         H299      H         0.5000    0.9321    0.3605    0.0       1.0000    Biso     1.000    
         H300      H         0.5000    0.9321    0.1395    0.0       1.0000    Biso     1.000    
         H301      H         0.5000    0.6395    0.4321    0.0       1.0000    Biso     1.000    
         H302      H         0.5000    0.8605    0.4321    0.0       1.0000    Biso     1.000    
         H303      H         0.5000    0.8605    0.0679    0.0       1.0000    Biso     1.000    
         H304      H         0.5000    0.6395    0.0679    0.0       1.0000    Biso     1.000    
         H305      H         0.6395    0.5679    0.0000    0.0       1.0000    Biso     1.000    
         H306      H         0.8605    0.5679    0.0000    0.0       1.0000    Biso     1.000    
         H307      H         0.8605    0.9321    0.0000    0.0       1.0000    Biso     1.000    
         H308      H         0.6395    0.9321    0.0000    0.0       1.0000    Biso     1.000    
         H309      H         0.5679    0.5000    0.3605    0.0       1.0000    Biso     1.000    
         H310      H         0.5679    0.5000    0.1395    0.0       1.0000    Biso     1.000    
         H311      H         0.9321    0.5000    0.1395    0.0       1.0000    Biso     1.000    
         H312      H         0.9321    0.5000    0.3605    0.0       1.0000    Biso     1.000    
         H313      H         0.6395    0.7500    0.3179    0.0       1.0000    Biso     1.000    
         H314      H         0.8605    0.7500    0.3179    0.0       1.0000    Biso     1.000    
         H315      H         0.8605    0.7500    0.1821    0.0       1.0000    Biso     1.000    
         H316      H         0.6395    0.7500    0.1821    0.0       1.0000    Biso     1.000    
         H317      H         0.5679    0.8895    0.2500    0.0       1.0000    Biso     1.000    
         H318      H         0.5679    0.6105    0.2500    0.0       1.0000    Biso     1.000    
         H319      H         0.9321    0.6105    0.2500    0.0       1.0000    Biso     1.000    
         H320      H         0.9321    0.8895    0.2500    0.0       1.0000    Biso     1.000    
         H321      H         0.5000    0.8179    0.3895    0.0       1.0000    Biso     1.000    
         H322      H         0.5000    0.8179    0.1105    0.0       1.0000    Biso     1.000    
         H323      H         0.5000    0.6821    0.1105    0.0       1.0000    Biso     1.000    
         H324      H         0.5000    0.6821    0.3895    0.0       1.0000    Biso     1.000    
         H325      H         0.5000    0.8895    0.1821    0.0       1.0000    Biso     1.000    
         H326      H         0.5000    0.6105    0.1821    0.0       1.0000    Biso     1.000    
         H327      H         0.5000    0.6105    0.3179    0.0       1.0000    Biso     1.000    
         H328      H         0.5000    0.8895    0.3179    0.0       1.0000    Biso     1.000    
         H329      H         0.6395    0.8179    0.2500    0.0       1.0000    Biso     1.000    
         H330      H         0.8605    0.8179    0.2500    0.0       1.0000    Biso     1.000    
         H331      H         0.8605    0.6821    0.2500    0.0       1.0000    Biso     1.000    
         H332      H         0.6395    0.6821    0.2500    0.0       1.0000    Biso     1.000    
         H333      H         0.5679    0.7500    0.1105    0.0       1.0000    Biso     1.000    
         H334      H         0.5679    0.7500    0.3895    0.0       1.0000    Biso     1.000    
         H335      H         0.9321    0.7500    0.3895    0.0       1.0000    Biso     1.000    
         H336      H         0.9321    0.7500    0.1105    0.0       1.0000    Biso     1.000    
         H337      H         0.8895    0.5000    0.3179    0.0       1.0000    Biso     1.000    
         H338      H         0.6105    0.5000    0.3179    0.0       1.0000    Biso     1.000    
         H339      H         0.6105    0.5000    0.1821    0.0       1.0000    Biso     1.000    
         H340      H         0.8895    0.5000    0.1821    0.0       1.0000    Biso     1.000    
         H341      H         0.8179    0.6395    0.2500    0.0       1.0000    Biso     1.000    
         H342      H         0.8179    0.8605    0.2500    0.0       1.0000    Biso     1.000    
         H343      H         0.6821    0.8605    0.2500    0.0       1.0000    Biso     1.000    
         H344      H         0.6821    0.6395    0.2500    0.0       1.0000    Biso     1.000    
         H345      H         0.7500    0.5679    0.3895    0.0       1.0000    Biso     1.000    
         H346      H         0.7500    0.5679    0.1105    0.0       1.0000    Biso     1.000    
         H347      H         0.7500    0.9321    0.1105    0.0       1.0000    Biso     1.000    
         H348      H         0.7500    0.9321    0.3895    0.0       1.0000    Biso     1.000    
         H349      H         0.7500    0.6395    0.1821    0.0       1.0000    Biso     1.000    
         H350      H         0.7500    0.8605    0.1821    0.0       1.0000    Biso     1.000    
         H351      H         0.7500    0.8605    0.3179    0.0       1.0000    Biso     1.000    
         H352      H         0.7500    0.6395    0.3179    0.0       1.0000    Biso     1.000    
         H353      H         0.8895    0.5679    0.2500    0.0       1.0000    Biso     1.000    
         H354      H         0.6105    0.5679    0.2500    0.0       1.0000    Biso     1.000    
         H355      H         0.6105    0.9321    0.2500    0.0       1.0000    Biso     1.000    
         H356      H         0.8895    0.9321    0.2500    0.0       1.0000    Biso     1.000    
         H357      H         0.8179    0.5000    0.1105    0.0       1.0000    Biso     1.000    
         H358      H         0.8179    0.5000    0.3895    0.0       1.0000    Biso     1.000    
         H359      H         0.6821    0.5000    0.3895    0.0       1.0000    Biso     1.000    
         H360      H         0.6821    0.5000    0.1105    0.0       1.0000    Biso     1.000    
         H361      H         0.8895    0.7500    0.0679    0.0       1.0000    Biso     1.000    
         H362      H         0.6105    0.7500    0.0679    0.0       1.0000    Biso     1.000    
         H363      H         0.6105    0.7500    0.4321    0.0       1.0000    Biso     1.000    
         H364      H         0.8895    0.7500    0.4321    0.0       1.0000    Biso     1.000    
         H365      H         0.8179    0.8895    0.0000    0.0       1.0000    Biso     1.000    
         H366      H         0.8179    0.6105    0.0000    0.0       1.0000    Biso     1.000    
         H367      H         0.6821    0.6105    0.0000    0.0       1.0000    Biso     1.000    
         H368      H         0.6821    0.8895    0.0000    0.0       1.0000    Biso     1.000    
         H369      H         0.7500    0.8179    0.1395    0.0       1.0000    Biso     1.000    
         H370      H         0.7500    0.8179    0.3605    0.0       1.0000    Biso     1.000    
         H371      H         0.7500    0.6821    0.3605    0.0       1.0000    Biso     1.000    
         H372      H         0.7500    0.6821    0.1395    0.0       1.0000    Biso     1.000    
         H373      H         0.7500    0.8895    0.4321    0.0       1.0000    Biso     1.000    
         H374      H         0.7500    0.6105    0.4321    0.0       1.0000    Biso     1.000    
         H375      H         0.7500    0.6105    0.0679    0.0       1.0000    Biso     1.000    
         H376      H         0.7500    0.8895    0.0679    0.0       1.0000    Biso     1.000    
         H377      H         0.8895    0.8179    0.0000    0.0       1.0000    Biso     1.000    
         H378      H         0.6105    0.8179    0.0000    0.0       1.0000    Biso     1.000    
         H379      H         0.6105    0.6821    0.0000    0.0       1.0000    Biso     1.000    
         H380      H         0.8895    0.6821    0.0000    0.0       1.0000    Biso     1.000    
         H381      H         0.8179    0.7500    0.3605    0.0       1.0000    Biso     1.000    
         H382      H         0.8179    0.7500    0.1395    0.0       1.0000    Biso     1.000    
         H383      H         0.6821    0.7500    0.1395    0.0       1.0000    Biso     1.000    
         H384      H         0.6821    0.7500    0.3605    0.0       1.0000    Biso     1.000    
         Zr49      Zr        0.4401    0.0000    0.5000    0.0       .         .        .        
         Zr50      Zr        0.0000    0.0600    0.5000    0.0       .         .        .        
         Zr51      Zr        0.0000    0.4401    0.5000    0.0       .         .        .        
         Zr52      Zr        0.0000    0.0000    0.5599    0.0       .         .        .        
         Zr53      Zr        0.0000    0.0000    0.9401    0.0       .         .        .        
         Zr54      Zr        0.4401    0.2500    0.7500    0.0       .         .        .        
         Zr55      Zr        0.0000    0.1900    0.7500    0.0       .         .        .        
         Zr56      Zr        0.0000    0.2500    0.8099    0.0       .         .        .        
         Zr57      Zr        0.3100    0.0000    0.7500    0.0       .         .        .        
         Zr58      Zr        0.2500    0.0600    0.7500    0.0       .         .        .        
         Zr59      Zr        0.1900    0.2500    0.5000    0.0       .         .        .        
         Zr60      Zr        0.2500    0.3100    0.5000    0.0       .         .        .        
         Zr61      Zr        0.2500    0.1900    0.5000    0.0       .         .        .        
         Zr62      Zr        0.2500    0.2500    0.9401    0.0       .         .        .        
         O513      O         0.0852    0.0000    0.5477    0.0       1.0000    Biso     1.000    
         O514      O         0.4148    0.0000    0.5477    0.0       1.0000    Biso     1.000    
         O515      O         0.4148    0.0000    0.9524    0.0       1.0000    Biso     1.000    
         O516      O         0.0852    0.0000    0.9524    0.0       1.0000    Biso     1.000    
         O517      O         0.0477    0.0852    0.5000    0.0       1.0000    Biso     1.000    
         O518      O         0.0477    0.4148    0.5000    0.0       1.0000    Biso     1.000    
         O519      O         0.4524    0.4148    0.5000    0.0       1.0000    Biso     1.000    
         O520      O         0.4524    0.0852    0.5000    0.0       1.0000    Biso     1.000    
         O521      O         0.0000    0.0477    0.5852    0.0       1.0000    Biso     1.000    
         O522      O         0.0000    0.0477    0.9148    0.0       1.0000    Biso     1.000    
         O523      O         0.0000    0.4524    0.9148    0.0       1.0000    Biso     1.000    
         O524      O         0.0000    0.4524    0.5852    0.0       1.0000    Biso     1.000    
         O525      O         0.0000    0.0852    0.9524    0.0       1.0000    Biso     1.000    
         O526      O         0.0000    0.4148    0.9524    0.0       1.0000    Biso     1.000    
         O527      O         0.0000    0.4148    0.5477    0.0       1.0000    Biso     1.000    
         O528      O         0.0000    0.0852    0.5477    0.0       1.0000    Biso     1.000    
         O529      O         0.0852    0.0477    0.5000    0.0       1.0000    Biso     1.000    
         O530      O         0.4148    0.0477    0.5000    0.0       1.0000    Biso     1.000    
         O531      O         0.4148    0.4524    0.5000    0.0       1.0000    Biso     1.000    
         O532      O         0.0852    0.4524    0.5000    0.0       1.0000    Biso     1.000    
         O533      O         0.0477    0.0000    0.9148    0.0       1.0000    Biso     1.000    
         O534      O         0.0477    0.0000    0.5852    0.0       1.0000    Biso     1.000    
         O535      O         0.4524    0.0000    0.5852    0.0       1.0000    Biso     1.000    
         O536      O         0.4524    0.0000    0.9148    0.0       1.0000    Biso     1.000    
         O537      O         0.0852    0.2500    0.7977    0.0       1.0000    Biso     1.000    
         O538      O         0.4148    0.2500    0.7977    0.0       1.0000    Biso     1.000    
         O539      O         0.4148    0.2500    0.7023    0.0       1.0000    Biso     1.000    
         O540      O         0.0852    0.2500    0.7023    0.0       1.0000    Biso     1.000    
         O541      O         0.0477    0.3352    0.7500    0.0       1.0000    Biso     1.000    
         O542      O         0.0477    0.1648    0.7500    0.0       1.0000    Biso     1.000    
         O543      O         0.4524    0.1648    0.7500    0.0       1.0000    Biso     1.000    
         O544      O         0.4524    0.3352    0.7500    0.0       1.0000    Biso     1.000    
         O545      O         0.0000    0.2977    0.8352    0.0       1.0000    Biso     1.000    
         O546      O         0.0000    0.2977    0.6648    0.0       1.0000    Biso     1.000    
         O547      O         0.0000    0.2023    0.6648    0.0       1.0000    Biso     1.000    
         O548      O         0.0000    0.2023    0.8352    0.0       1.0000    Biso     1.000    
         O549      O         0.0000    0.3352    0.7023    0.0       1.0000    Biso     1.000    
         O550      O         0.0000    0.1648    0.7023    0.0       1.0000    Biso     1.000    
         O551      O         0.0000    0.1648    0.7977    0.0       1.0000    Biso     1.000    
         O552      O         0.0000    0.3352    0.7977    0.0       1.0000    Biso     1.000    
         O553      O         0.0852    0.2977    0.7500    0.0       1.0000    Biso     1.000    
         O554      O         0.4148    0.2977    0.7500    0.0       1.0000    Biso     1.000    
         O555      O         0.4148    0.2023    0.7500    0.0       1.0000    Biso     1.000    
         O556      O         0.0852    0.2023    0.7500    0.0       1.0000    Biso     1.000    
         O557      O         0.0477    0.2500    0.6648    0.0       1.0000    Biso     1.000    
         O558      O         0.0477    0.2500    0.8352    0.0       1.0000    Biso     1.000    
         O559      O         0.4524    0.2500    0.8352    0.0       1.0000    Biso     1.000    
         O560      O         0.4524    0.2500    0.6648    0.0       1.0000    Biso     1.000    
         O561      O         0.3352    0.0000    0.7977    0.0       1.0000    Biso     1.000    
         O562      O         0.1648    0.0000    0.7977    0.0       1.0000    Biso     1.000    
         O563      O         0.1648    0.0000    0.7023    0.0       1.0000    Biso     1.000    
         O564      O         0.3352    0.0000    0.7023    0.0       1.0000    Biso     1.000    
         O565      O         0.2977    0.0852    0.7500    0.0       1.0000    Biso     1.000    
         O566      O         0.2977    0.4148    0.7500    0.0       1.0000    Biso     1.000    
         O567      O         0.2023    0.4148    0.7500    0.0       1.0000    Biso     1.000    
         O568      O         0.2023    0.0852    0.7500    0.0       1.0000    Biso     1.000    
         O569      O         0.2500    0.0477    0.8352    0.0       1.0000    Biso     1.000    
         O570      O         0.2500    0.0477    0.6648    0.0       1.0000    Biso     1.000    
         O571      O         0.2500    0.4524    0.6648    0.0       1.0000    Biso     1.000    
         O572      O         0.2500    0.4524    0.8352    0.0       1.0000    Biso     1.000    
         O573      O         0.2500    0.0852    0.7023    0.0       1.0000    Biso     1.000    
         O574      O         0.2500    0.4148    0.7023    0.0       1.0000    Biso     1.000    
         O575      O         0.2500    0.4148    0.7977    0.0       1.0000    Biso     1.000    
         O576      O         0.2500    0.0852    0.7977    0.0       1.0000    Biso     1.000    
         O577      O         0.3352    0.0477    0.7500    0.0       1.0000    Biso     1.000    
         O578      O         0.1648    0.0477    0.7500    0.0       1.0000    Biso     1.000    
         O579      O         0.1648    0.4524    0.7500    0.0       1.0000    Biso     1.000    
         O580      O         0.3352    0.4524    0.7500    0.0       1.0000    Biso     1.000    
         O581      O         0.2977    0.0000    0.6648    0.0       1.0000    Biso     1.000    
         O582      O         0.2977    0.0000    0.8352    0.0       1.0000    Biso     1.000    
         O583      O         0.2023    0.0000    0.8352    0.0       1.0000    Biso     1.000    
         O584      O         0.2023    0.0000    0.6648    0.0       1.0000    Biso     1.000    
         O585      O         0.3352    0.2500    0.5477    0.0       1.0000    Biso     1.000    
         O586      O         0.1648    0.2500    0.5477    0.0       1.0000    Biso     1.000    
         O587      O         0.1648    0.2500    0.9524    0.0       1.0000    Biso     1.000    
         O588      O         0.3352    0.2500    0.9524    0.0       1.0000    Biso     1.000    
         O589      O         0.2977    0.3352    0.5000    0.0       1.0000    Biso     1.000    
         O590      O         0.2977    0.1648    0.5000    0.0       1.0000    Biso     1.000    
         O591      O         0.2023    0.1648    0.5000    0.0       1.0000    Biso     1.000    
         O592      O         0.2023    0.3352    0.5000    0.0       1.0000    Biso     1.000    
         O593      O         0.2500    0.2977    0.5852    0.0       1.0000    Biso     1.000    
         O594      O         0.2500    0.2977    0.9148    0.0       1.0000    Biso     1.000    
         O595      O         0.2500    0.2023    0.9148    0.0       1.0000    Biso     1.000    
         O596      O         0.2500    0.2023    0.5852    0.0       1.0000    Biso     1.000    
         O597      O         0.2500    0.3352    0.9524    0.0       1.0000    Biso     1.000    
         O598      O         0.2500    0.1648    0.9524    0.0       1.0000    Biso     1.000    
         O599      O         0.2500    0.1648    0.5477    0.0       1.0000    Biso     1.000    
         O600      O         0.2500    0.3352    0.5477    0.0       1.0000    Biso     1.000    
         O601      O         0.3352    0.2977    0.5000    0.0       1.0000    Biso     1.000    
         O602      O         0.1648    0.2977    0.5000    0.0       1.0000    Biso     1.000    
         O603      O         0.1648    0.2023    0.5000    0.0       1.0000    Biso     1.000    
         O604      O         0.3352    0.2023    0.5000    0.0       1.0000    Biso     1.000    
         O605      O         0.2977    0.2500    0.9148    0.0       1.0000    Biso     1.000    
         O606      O         0.2977    0.2500    0.5852    0.0       1.0000    Biso     1.000    
         O607      O         0.2023    0.2500    0.5852    0.0       1.0000    Biso     1.000    
         O608      O         0.2023    0.2500    0.9148    0.0       1.0000    Biso     1.000    
         O609      O         0.0280    0.4720    0.9720    0.0       .         .        .        
         O610      O         0.4720    0.0280    0.9720    0.0       .         .        .        
         O611      O         0.4720    0.4720    0.5280    0.0       .         .        .        
         O612      O         0.0280    0.0280    0.5280    0.0       .         .        .        
         O613      O         0.4720    0.0280    0.5280    0.0       .         .        .        
         O614      O         0.0280    0.4720    0.5280    0.0       .         .        .        
         O615      O         0.4720    0.4720    0.9720    0.0       .         .        .        
         O616      O         0.0280    0.0280    0.9720    0.0       .         .        .        
         O617      O         0.0280    0.2220    0.7220    0.0       .         .        .        
         O618      O         0.4720    0.2780    0.7220    0.0       .         .        .        
         O619      O         0.4720    0.2220    0.7780    0.0       .         .        .        
         O620      O         0.0280    0.2780    0.7780    0.0       .         .        .        
         O621      O         0.4720    0.2780    0.7780    0.0       .         .        .        
         O622      O         0.0280    0.2220    0.7780    0.0       .         .        .        
         O623      O         0.4720    0.2220    0.7220    0.0       .         .        .        
         O624      O         0.0280    0.2780    0.7220    0.0       .         .        .        
         O625      O         0.2780    0.4720    0.7220    0.0       .         .        .        
         O626      O         0.2220    0.0280    0.7220    0.0       .         .        .        
         O627      O         0.2220    0.4720    0.7780    0.0       .         .        .        
         O628      O         0.2780    0.0280    0.7780    0.0       .         .        .        
         O629      O         0.2220    0.0280    0.7780    0.0       .         .        .        
         O630      O         0.2780    0.4720    0.7780    0.0       .         .        .        
         O631      O         0.2220    0.4720    0.7220    0.0       .         .        .        
         O632      O         0.2780    0.0280    0.7220    0.0       .         .        .        
         O633      O         0.2780    0.2220    0.9720    0.0       .         .        .        
         O634      O         0.2220    0.2780    0.9720    0.0       .         .        .        
         O635      O         0.2220    0.2220    0.5280    0.0       .         .        .        
         O636      O         0.2780    0.2780    0.5280    0.0       .         .        .        
         O637      O         0.2220    0.2780    0.5280    0.0       .         .        .        
         O638      O         0.2780    0.2220    0.5280    0.0       .         .        .        
         O639      O         0.2220    0.2220    0.9720    0.0       .         .        .        
         O640      O         0.2780    0.2780    0.9720    0.0       .         .        .        
         C769      C         0.0768    0.0000    0.9232    0.0       1.0000    Biso     1.000    
         C770      C         0.4232    0.0000    0.9232    0.0       1.0000    Biso     1.000    
         C771      C         0.4232    0.0000    0.5768    0.0       1.0000    Biso     1.000    
         C772      C         0.0768    0.0000    0.5768    0.0       1.0000    Biso     1.000    
         C773      C         0.4232    0.0768    0.5000    0.0       1.0000    Biso     1.000    
         C774      C         0.4232    0.4232    0.5000    0.0       1.0000    Biso     1.000    
         C775      C         0.0768    0.4232    0.5000    0.0       1.0000    Biso     1.000    
         C776      C         0.0768    0.0768    0.5000    0.0       1.0000    Biso     1.000    
         C777      C         0.0000    0.4232    0.5768    0.0       1.0000    Biso     1.000    
         C778      C         0.0000    0.4232    0.9232    0.0       1.0000    Biso     1.000    
         C779      C         0.0000    0.0768    0.9232    0.0       1.0000    Biso     1.000    
         C780      C         0.0000    0.0768    0.5768    0.0       1.0000    Biso     1.000    
         C781      C         0.0768    0.2500    0.6732    0.0       1.0000    Biso     1.000    
         C782      C         0.4232    0.2500    0.6732    0.0       1.0000    Biso     1.000    
         C783      C         0.4232    0.2500    0.8268    0.0       1.0000    Biso     1.000    
         C784      C         0.0768    0.2500    0.8268    0.0       1.0000    Biso     1.000    
         C785      C         0.4232    0.3268    0.7500    0.0       1.0000    Biso     1.000    
         C786      C         0.4232    0.1732    0.7500    0.0       1.0000    Biso     1.000    
         C787      C         0.0768    0.1732    0.7500    0.0       1.0000    Biso     1.000    
         C788      C         0.0768    0.3268    0.7500    0.0       1.0000    Biso     1.000    
         C789      C         0.0000    0.1732    0.8268    0.0       1.0000    Biso     1.000    
         C790      C         0.0000    0.1732    0.6732    0.0       1.0000    Biso     1.000    
         C791      C         0.0000    0.3268    0.6732    0.0       1.0000    Biso     1.000    
         C792      C         0.0000    0.3268    0.8268    0.0       1.0000    Biso     1.000    
         C793      C         0.3268    0.0000    0.6732    0.0       1.0000    Biso     1.000    
         C794      C         0.1732    0.0000    0.6732    0.0       1.0000    Biso     1.000    
         C795      C         0.1732    0.0000    0.8268    0.0       1.0000    Biso     1.000    
         C796      C         0.3268    0.0000    0.8268    0.0       1.0000    Biso     1.000    
         C797      C         0.1732    0.0768    0.7500    0.0       1.0000    Biso     1.000    
         C798      C         0.1732    0.4232    0.7500    0.0       1.0000    Biso     1.000    
         C799      C         0.3268    0.4232    0.7500    0.0       1.0000    Biso     1.000    
         C800      C         0.3268    0.0768    0.7500    0.0       1.0000    Biso     1.000    
         C801      C         0.2500    0.4232    0.8268    0.0       1.0000    Biso     1.000    
         C802      C         0.2500    0.4232    0.6732    0.0       1.0000    Biso     1.000    
         C803      C         0.2500    0.0768    0.6732    0.0       1.0000    Biso     1.000    
         C804      C         0.2500    0.0768    0.8268    0.0       1.0000    Biso     1.000    
         C805      C         0.3268    0.2500    0.9232    0.0       1.0000    Biso     1.000    
         C806      C         0.1732    0.2500    0.9232    0.0       1.0000    Biso     1.000    
         C807      C         0.1732    0.2500    0.5768    0.0       1.0000    Biso     1.000    
         C808      C         0.3268    0.2500    0.5768    0.0       1.0000    Biso     1.000    
         C809      C         0.1732    0.3268    0.5000    0.0       1.0000    Biso     1.000    
         C810      C         0.1732    0.1732    0.5000    0.0       1.0000    Biso     1.000    
         C811      C         0.3268    0.1732    0.5000    0.0       1.0000    Biso     1.000    
         C812      C         0.3268    0.3268    0.5000    0.0       1.0000    Biso     1.000    
         C813      C         0.2500    0.1732    0.5768    0.0       1.0000    Biso     1.000    
         C814      C         0.2500    0.1732    0.9232    0.0       1.0000    Biso     1.000    
         C815      C         0.2500    0.3268    0.9232    0.0       1.0000    Biso     1.000    
         C816      C         0.2500    0.3268    0.5768    0.0       1.0000    Biso     1.000    
         C817      C         0.1025    0.0000    0.6025    0.0       1.0000    Biso     1.000    
         C818      C         0.3975    0.0000    0.6025    0.0       1.0000    Biso     1.000    
         C819      C         0.3975    0.0000    0.8975    0.0       1.0000    Biso     1.000    
         C820      C         0.1025    0.0000    0.8975    0.0       1.0000    Biso     1.000    
         C821      C         0.1025    0.1025    0.5000    0.0       1.0000    Biso     1.000    
         C822      C         0.1025    0.3975    0.5000    0.0       1.0000    Biso     1.000    
         C823      C         0.3975    0.3975    0.5000    0.0       1.0000    Biso     1.000    
         C824      C         0.3975    0.1025    0.5000    0.0       1.0000    Biso     1.000    
         C825      C         0.0000    0.1025    0.6025    0.0       1.0000    Biso     1.000    
         C826      C         0.0000    0.1025    0.8975    0.0       1.0000    Biso     1.000    
         C827      C         0.0000    0.3975    0.8975    0.0       1.0000    Biso     1.000    
         C828      C         0.0000    0.3975    0.6025    0.0       1.0000    Biso     1.000    
         C829      C         0.1025    0.2500    0.8525    0.0       1.0000    Biso     1.000    
         C830      C         0.3975    0.2500    0.8525    0.0       1.0000    Biso     1.000    
         C831      C         0.3975    0.2500    0.6475    0.0       1.0000    Biso     1.000    
         C832      C         0.1025    0.2500    0.6475    0.0       1.0000    Biso     1.000    
         C833      C         0.1025    0.3525    0.7500    0.0       1.0000    Biso     1.000    
         C834      C         0.1025    0.1475    0.7500    0.0       1.0000    Biso     1.000    
         C835      C         0.3975    0.1475    0.7500    0.0       1.0000    Biso     1.000    
         C836      C         0.3975    0.3525    0.7500    0.0       1.0000    Biso     1.000    
         C837      C         0.0000    0.3525    0.8525    0.0       1.0000    Biso     1.000    
         C838      C         0.0000    0.3525    0.6475    0.0       1.0000    Biso     1.000    
         C839      C         0.0000    0.1475    0.6475    0.0       1.0000    Biso     1.000    
         C840      C         0.0000    0.1475    0.8525    0.0       1.0000    Biso     1.000    
         C841      C         0.3525    0.0000    0.8525    0.0       1.0000    Biso     1.000    
         C842      C         0.1475    0.0000    0.8525    0.0       1.0000    Biso     1.000    
         C843      C         0.1475    0.0000    0.6475    0.0       1.0000    Biso     1.000    
         C844      C         0.3525    0.0000    0.6475    0.0       1.0000    Biso     1.000    
         C845      C         0.3525    0.1025    0.7500    0.0       1.0000    Biso     1.000    
         C846      C         0.3525    0.3975    0.7500    0.0       1.0000    Biso     1.000    
         C847      C         0.1475    0.3975    0.7500    0.0       1.0000    Biso     1.000    
         C848      C         0.1475    0.1025    0.7500    0.0       1.0000    Biso     1.000    
         C849      C         0.2500    0.1025    0.8525    0.0       1.0000    Biso     1.000    
         C850      C         0.2500    0.1025    0.6475    0.0       1.0000    Biso     1.000    
         C851      C         0.2500    0.3975    0.6475    0.0       1.0000    Biso     1.000    
         C852      C         0.2500    0.3975    0.8525    0.0       1.0000    Biso     1.000    
         C853      C         0.3525    0.2500    0.6025    0.0       1.0000    Biso     1.000    
         C854      C         0.1475    0.2500    0.6025    0.0       1.0000    Biso     1.000    
         C855      C         0.1475    0.2500    0.8975    0.0       1.0000    Biso     1.000    
         C856      C         0.3525    0.2500    0.8975    0.0       1.0000    Biso     1.000    
         C857      C         0.3525    0.3525    0.5000    0.0       1.0000    Biso     1.000    
         C858      C         0.3525    0.1475    0.5000    0.0       1.0000    Biso     1.000    
         C859      C         0.1475    0.1475    0.5000    0.0       1.0000    Biso     1.000    
         C860      C         0.1475    0.3525    0.5000    0.0       1.0000    Biso     1.000    
         C861      C         0.2500    0.3525    0.6025    0.0       1.0000    Biso     1.000    
         C862      C         0.2500    0.3525    0.8975    0.0       1.0000    Biso     1.000    
         C863      C         0.2500    0.1475    0.8975    0.0       1.0000    Biso     1.000    
         C864      C         0.2500    0.1475    0.6025    0.0       1.0000    Biso     1.000    
         C865      C         0.1337    0.0000    0.5922    0.0       1.0000    Biso     1.000    
         C866      C         0.3663    0.0000    0.5922    0.0       1.0000    Biso     1.000    
         C867      C         0.3663    0.0000    0.9078    0.0       1.0000    Biso     1.000    
         C868      C         0.1337    0.0000    0.9078    0.0       1.0000    Biso     1.000    
         C869      C         0.0922    0.1337    0.5000    0.0       1.0000    Biso     1.000    
         C870      C         0.0922    0.3663    0.5000    0.0       1.0000    Biso     1.000    
         C871      C         0.4078    0.3663    0.5000    0.0       1.0000    Biso     1.000    
         C872      C         0.4078    0.1337    0.5000    0.0       1.0000    Biso     1.000    
         C873      C         0.0000    0.0922    0.6337    0.0       1.0000    Biso     1.000    
         C874      C         0.0000    0.0922    0.8663    0.0       1.0000    Biso     1.000    
         C875      C         0.0000    0.4078    0.8663    0.0       1.0000    Biso     1.000    
         C876      C         0.0000    0.4078    0.6337    0.0       1.0000    Biso     1.000    
         C877      C         0.0000    0.1337    0.9078    0.0       1.0000    Biso     1.000    
         C878      C         0.0000    0.3663    0.9078    0.0       1.0000    Biso     1.000    
         C879      C         0.0000    0.3663    0.5922    0.0       1.0000    Biso     1.000    
         C880      C         0.0000    0.1337    0.5922    0.0       1.0000    Biso     1.000    
         C881      C         0.1337    0.0922    0.5000    0.0       1.0000    Biso     1.000    
         C882      C         0.3663    0.0922    0.5000    0.0       1.0000    Biso     1.000    
         C883      C         0.3663    0.4078    0.5000    0.0       1.0000    Biso     1.000    
         C884      C         0.1337    0.4078    0.5000    0.0       1.0000    Biso     1.000    
         C885      C         0.0922    0.0000    0.8663    0.0       1.0000    Biso     1.000    
         C886      C         0.0922    0.0000    0.6337    0.0       1.0000    Biso     1.000    
         C887      C         0.4078    0.0000    0.6337    0.0       1.0000    Biso     1.000    
         C888      C         0.4078    0.0000    0.8663    0.0       1.0000    Biso     1.000    
         C889      C         0.1337    0.2500    0.8422    0.0       1.0000    Biso     1.000    
         C890      C         0.3663    0.2500    0.8422    0.0       1.0000    Biso     1.000    
         C891      C         0.3663    0.2500    0.6578    0.0       1.0000    Biso     1.000    
         C892      C         0.1337    0.2500    0.6578    0.0       1.0000    Biso     1.000    
         C893      C         0.0922    0.3838    0.7500    0.0       1.0000    Biso     1.000    
         C894      C         0.0922    0.1163    0.7500    0.0       1.0000    Biso     1.000    
         C895      C         0.4078    0.1163    0.7500    0.0       1.0000    Biso     1.000    
         C896      C         0.4078    0.3838    0.7500    0.0       1.0000    Biso     1.000    
         C897      C         0.0000    0.3422    0.8838    0.0       1.0000    Biso     1.000    
         C898      C         0.0000    0.3422    0.6163    0.0       1.0000    Biso     1.000    
         C899      C         0.0000    0.1578    0.6163    0.0       1.0000    Biso     1.000    
         C900      C         0.0000    0.1578    0.8838    0.0       1.0000    Biso     1.000    
         C901      C         0.0000    0.3838    0.6578    0.0       1.0000    Biso     1.000    
         C902      C         0.0000    0.1163    0.6578    0.0       1.0000    Biso     1.000    
         C903      C         0.0000    0.1163    0.8422    0.0       1.0000    Biso     1.000    
         C904      C         0.0000    0.3838    0.8422    0.0       1.0000    Biso     1.000    
         C905      C         0.1337    0.3422    0.7500    0.0       1.0000    Biso     1.000    
         C906      C         0.3663    0.3422    0.7500    0.0       1.0000    Biso     1.000    
         C907      C         0.3663    0.1578    0.7500    0.0       1.0000    Biso     1.000    
         C908      C         0.1337    0.1578    0.7500    0.0       1.0000    Biso     1.000    
         C909      C         0.0922    0.2500    0.6163    0.0       1.0000    Biso     1.000    
         C910      C         0.0922    0.2500    0.8838    0.0       1.0000    Biso     1.000    
         C911      C         0.4078    0.2500    0.8838    0.0       1.0000    Biso     1.000    
         C912      C         0.4078    0.2500    0.6163    0.0       1.0000    Biso     1.000    
         C913      C         0.3838    0.0000    0.8422    0.0       1.0000    Biso     1.000    
         C914      C         0.1163    0.0000    0.8422    0.0       1.0000    Biso     1.000    
         C915      C         0.1163    0.0000    0.6578    0.0       1.0000    Biso     1.000    
         C916      C         0.3838    0.0000    0.6578    0.0       1.0000    Biso     1.000    
         C917      C         0.3422    0.1337    0.7500    0.0       1.0000    Biso     1.000    
         C918      C         0.3422    0.3663    0.7500    0.0       1.0000    Biso     1.000    
         C919      C         0.1578    0.3663    0.7500    0.0       1.0000    Biso     1.000    
         C920      C         0.1578    0.1337    0.7500    0.0       1.0000    Biso     1.000    
         C921      C         0.2500    0.0922    0.8838    0.0       1.0000    Biso     1.000    
         C922      C         0.2500    0.0922    0.6163    0.0       1.0000    Biso     1.000    
         C923      C         0.2500    0.4078    0.6163    0.0       1.0000    Biso     1.000    
         C924      C         0.2500    0.4078    0.8838    0.0       1.0000    Biso     1.000    
         C925      C         0.2500    0.1337    0.6578    0.0       1.0000    Biso     1.000    
         C926      C         0.2500    0.3663    0.6578    0.0       1.0000    Biso     1.000    
         C927      C         0.2500    0.3663    0.8422    0.0       1.0000    Biso     1.000    
         C928      C         0.2500    0.1337    0.8422    0.0       1.0000    Biso     1.000    
         C929      C         0.3838    0.0922    0.7500    0.0       1.0000    Biso     1.000    
         C930      C         0.1163    0.0922    0.7500    0.0       1.0000    Biso     1.000    
         C931      C         0.1163    0.4078    0.7500    0.0       1.0000    Biso     1.000    
         C932      C         0.3838    0.4078    0.7500    0.0       1.0000    Biso     1.000    
         C933      C         0.3422    0.0000    0.6163    0.0       1.0000    Biso     1.000    
         C934      C         0.3422    0.0000    0.8838    0.0       1.0000    Biso     1.000    
         C935      C         0.1578    0.0000    0.8838    0.0       1.0000    Biso     1.000    
         C936      C         0.1578    0.0000    0.6163    0.0       1.0000    Biso     1.000    
         C937      C         0.3838    0.2500    0.5922    0.0       1.0000    Biso     1.000    
         C938      C         0.1163    0.2500    0.5922    0.0       1.0000    Biso     1.000    
         C939      C         0.1163    0.2500    0.9078    0.0       1.0000    Biso     1.000    
         C940      C         0.3838    0.2500    0.9078    0.0       1.0000    Biso     1.000    
         C941      C         0.3422    0.3838    0.5000    0.0       1.0000    Biso     1.000    
         C942      C         0.3422    0.1163    0.5000    0.0       1.0000    Biso     1.000    
         C943      C         0.1578    0.1163    0.5000    0.0       1.0000    Biso     1.000    
         C944      C         0.1578    0.3838    0.5000    0.0       1.0000    Biso     1.000    
         C945      C         0.2500    0.3422    0.6337    0.0       1.0000    Biso     1.000    
         C946      C         0.2500    0.3422    0.8663    0.0       1.0000    Biso     1.000    
         C947      C         0.2500    0.1578    0.8663    0.0       1.0000    Biso     1.000    
         C948      C         0.2500    0.1578    0.6337    0.0       1.0000    Biso     1.000    
         C949      C         0.2500    0.3838    0.9078    0.0       1.0000    Biso     1.000    
         C950      C         0.2500    0.1163    0.9078    0.0       1.0000    Biso     1.000    
         C951      C         0.2500    0.1163    0.5922    0.0       1.0000    Biso     1.000    
         C952      C         0.2500    0.3838    0.5922    0.0       1.0000    Biso     1.000    
         C953      C         0.3838    0.3422    0.5000    0.0       1.0000    Biso     1.000    
         C954      C         0.1163    0.3422    0.5000    0.0       1.0000    Biso     1.000    
         C955      C         0.1163    0.1578    0.5000    0.0       1.0000    Biso     1.000    
         C956      C         0.3838    0.1578    0.5000    0.0       1.0000    Biso     1.000    
         C957      C         0.3422    0.2500    0.8663    0.0       1.0000    Biso     1.000    
         C958      C         0.3422    0.2500    0.6337    0.0       1.0000    Biso     1.000    
         C959      C         0.1578    0.2500    0.6337    0.0       1.0000    Biso     1.000    
         C960      C         0.1578    0.2500    0.8663    0.0       1.0000    Biso     1.000    
         H385      H         0.1395    0.0000    0.5679    0.0       1.0000    Biso     1.000    
         H386      H         0.3605    0.0000    0.5679    0.0       1.0000    Biso     1.000    
         H387      H         0.3605    0.0000    0.9321    0.0       1.0000    Biso     1.000    
         H388      H         0.1395    0.0000    0.9321    0.0       1.0000    Biso     1.000    
         H389      H         0.0679    0.1395    0.5000    0.0       1.0000    Biso     1.000    
         H390      H         0.0679    0.3605    0.5000    0.0       1.0000    Biso     1.000    
         H391      H         0.4321    0.3605    0.5000    0.0       1.0000    Biso     1.000    
         H392      H         0.4321    0.1395    0.5000    0.0       1.0000    Biso     1.000    
         H393      H         0.0000    0.0679    0.6395    0.0       1.0000    Biso     1.000    
         H394      H         0.0000    0.0679    0.8605    0.0       1.0000    Biso     1.000    
         H395      H         0.0000    0.4321    0.8605    0.0       1.0000    Biso     1.000    
         H396      H         0.0000    0.4321    0.6395    0.0       1.0000    Biso     1.000    
         H397      H         0.0000    0.1395    0.9321    0.0       1.0000    Biso     1.000    
         H398      H         0.0000    0.3605    0.9321    0.0       1.0000    Biso     1.000    
         H399      H         0.0000    0.3605    0.5679    0.0       1.0000    Biso     1.000    
         H400      H         0.0000    0.1395    0.5679    0.0       1.0000    Biso     1.000    
         H401      H         0.1395    0.0679    0.5000    0.0       1.0000    Biso     1.000    
         H402      H         0.3605    0.0679    0.5000    0.0       1.0000    Biso     1.000    
         H403      H         0.3605    0.4321    0.5000    0.0       1.0000    Biso     1.000    
         H404      H         0.1395    0.4321    0.5000    0.0       1.0000    Biso     1.000    
         H405      H         0.0679    0.0000    0.8605    0.0       1.0000    Biso     1.000    
         H406      H         0.0679    0.0000    0.6395    0.0       1.0000    Biso     1.000    
         H407      H         0.4321    0.0000    0.6395    0.0       1.0000    Biso     1.000    
         H408      H         0.4321    0.0000    0.8605    0.0       1.0000    Biso     1.000    
         H409      H         0.1395    0.2500    0.8179    0.0       1.0000    Biso     1.000    
         H410      H         0.3605    0.2500    0.8179    0.0       1.0000    Biso     1.000    
         H411      H         0.3605    0.2500    0.6821    0.0       1.0000    Biso     1.000    
         H412      H         0.1395    0.2500    0.6821    0.0       1.0000    Biso     1.000    
         H413      H         0.0679    0.3895    0.7500    0.0       1.0000    Biso     1.000    
         H414      H         0.0679    0.1105    0.7500    0.0       1.0000    Biso     1.000    
         H415      H         0.4321    0.1105    0.7500    0.0       1.0000    Biso     1.000    
         H416      H         0.4321    0.3895    0.7500    0.0       1.0000    Biso     1.000    
         H417      H         0.0000    0.3179    0.8895    0.0       1.0000    Biso     1.000    
         H418      H         0.0000    0.3179    0.6105    0.0       1.0000    Biso     1.000    
         H419      H         0.0000    0.1821    0.6105    0.0       1.0000    Biso     1.000    
         H420      H         0.0000    0.1821    0.8895    0.0       1.0000    Biso     1.000    
         H421      H         0.0000    0.3895    0.6821    0.0       1.0000    Biso     1.000    
         H422      H         0.0000    0.1105    0.6821    0.0       1.0000    Biso     1.000    
         H423      H         0.0000    0.1105    0.8179    0.0       1.0000    Biso     1.000    
         H424      H         0.0000    0.3895    0.8179    0.0       1.0000    Biso     1.000    
         H425      H         0.1395    0.3179    0.7500    0.0       1.0000    Biso     1.000    
         H426      H         0.3605    0.3179    0.7500    0.0       1.0000    Biso     1.000    
         H427      H         0.3605    0.1821    0.7500    0.0       1.0000    Biso     1.000    
         H428      H         0.1395    0.1821    0.7500    0.0       1.0000    Biso     1.000    
         H429      H         0.0679    0.2500    0.6105    0.0       1.0000    Biso     1.000    
         H430      H         0.0679    0.2500    0.8895    0.0       1.0000    Biso     1.000    
         H431      H         0.4321    0.2500    0.8895    0.0       1.0000    Biso     1.000    
         H432      H         0.4321    0.2500    0.6105    0.0       1.0000    Biso     1.000    
         H433      H         0.3895    0.0000    0.8179    0.0       1.0000    Biso     1.000    
         H434      H         0.1105    0.0000    0.8179    0.0       1.0000    Biso     1.000    
         H435      H         0.1105    0.0000    0.6821    0.0       1.0000    Biso     1.000    
         H436      H         0.3895    0.0000    0.6821    0.0       1.0000    Biso     1.000    
         H437      H         0.3179    0.1395    0.7500    0.0       1.0000    Biso     1.000    
         H438      H         0.3179    0.3605    0.7500    0.0       1.0000    Biso     1.000    
         H439      H         0.1821    0.3605    0.7500    0.0       1.0000    Biso     1.000    
         H440      H         0.1821    0.1395    0.7500    0.0       1.0000    Biso     1.000    
         H441      H         0.2500    0.0679    0.8895    0.0       1.0000    Biso     1.000    
         H442      H         0.2500    0.0679    0.6105    0.0       1.0000    Biso     1.000    
         H443      H         0.2500    0.4321    0.6105    0.0       1.0000    Biso     1.000    
         H444      H         0.2500    0.4321    0.8895    0.0       1.0000    Biso     1.000    
         H445      H         0.2500    0.1395    0.6821    0.0       1.0000    Biso     1.000    
         H446      H         0.2500    0.3605    0.6821    0.0       1.0000    Biso     1.000    
         H447      H         0.2500    0.3605    0.8179    0.0       1.0000    Biso     1.000    
         H448      H         0.2500    0.1395    0.8179    0.0       1.0000    Biso     1.000    
         H449      H         0.3895    0.0679    0.7500    0.0       1.0000    Biso     1.000    
         H450      H         0.1105    0.0679    0.7500    0.0       1.0000    Biso     1.000    
         H451      H         0.1105    0.4321    0.7500    0.0       1.0000    Biso     1.000    
         H452      H         0.3895    0.4321    0.7500    0.0       1.0000    Biso     1.000    
         H453      H         0.3179    0.0000    0.6105    0.0       1.0000    Biso     1.000    
         H454      H         0.3179    0.0000    0.8895    0.0       1.0000    Biso     1.000    
         H455      H         0.1821    0.0000    0.8895    0.0       1.0000    Biso     1.000    
         H456      H         0.1821    0.0000    0.6105    0.0       1.0000    Biso     1.000    
         H457      H         0.3895    0.2500    0.5679    0.0       1.0000    Biso     1.000    
         H458      H         0.1105    0.2500    0.5679    0.0       1.0000    Biso     1.000    
         H459      H         0.1105    0.2500    0.9321    0.0       1.0000    Biso     1.000    
         H460      H         0.3895    0.2500    0.9321    0.0       1.0000    Biso     1.000    
         H461      H         0.3179    0.3895    0.5000    0.0       1.0000    Biso     1.000    
         H462      H         0.3179    0.1105    0.5000    0.0       1.0000    Biso     1.000    
         H463      H         0.1821    0.1105    0.5000    0.0       1.0000    Biso     1.000    
         H464      H         0.1821    0.3895    0.5000    0.0       1.0000    Biso     1.000    
         H465      H         0.2500    0.3179    0.6395    0.0       1.0000    Biso     1.000    
         H466      H         0.2500    0.3179    0.8605    0.0       1.0000    Biso     1.000    
         H467      H         0.2500    0.1821    0.8605    0.0       1.0000    Biso     1.000    
         H468      H         0.2500    0.1821    0.6395    0.0       1.0000    Biso     1.000    
         H469      H         0.2500    0.3895    0.9321    0.0       1.0000    Biso     1.000    
         H470      H         0.2500    0.1105    0.9321    0.0       1.0000    Biso     1.000    
         H471      H         0.2500    0.1105    0.5679    0.0       1.0000    Biso     1.000    
         H472      H         0.2500    0.3895    0.5679    0.0       1.0000    Biso     1.000    
         H473      H         0.3895    0.3179    0.5000    0.0       1.0000    Biso     1.000    
         H474      H         0.1105    0.3179    0.5000    0.0       1.0000    Biso     1.000    
         H475      H         0.1105    0.1821    0.5000    0.0       1.0000    Biso     1.000    
         H476      H         0.3895    0.1821    0.5000    0.0       1.0000    Biso     1.000    
         H477      H         0.3179    0.2500    0.8605    0.0       1.0000    Biso     1.000    
         H478      H         0.3179    0.2500    0.6395    0.0       1.0000    Biso     1.000    
         H479      H         0.1821    0.2500    0.6395    0.0       1.0000    Biso     1.000    
         H480      H         0.1821    0.2500    0.8605    0.0       1.0000    Biso     1.000    
         Zr63      Zr        0.0600    0.5000    0.5000    0.0       .         .        .        
         Zr64      Zr        0.0000    0.9401    0.5000    0.0       .         .        .        
         Zr65      Zr        0.0000    0.5000    0.9401    0.0       .         .        .        
         Zr66      Zr        0.0600    0.7500    0.7500    0.0       .         .        .        
         Zr67      Zr        0.4401    0.7500    0.7500    0.0       .         .        .        
         Zr68      Zr        0.0000    0.7500    0.8099    0.0       .         .        .        
         Zr69      Zr        0.2500    0.5599    0.7500    0.0       .         .        .        
         Zr70      Zr        0.2500    0.9401    0.7500    0.0       .         .        .        
         Zr71      Zr        0.2500    0.5000    0.8099    0.0       .         .        .        
         Zr72      Zr        0.2500    0.5000    0.6900    0.0       .         .        .        
         Zr73      Zr        0.1900    0.7500    0.5000    0.0       .         .        .        
         Zr74      Zr        0.2500    0.6900    0.5000    0.0       .         .        .        
         Zr75      Zr        0.2500    0.7500    0.9401    0.0       .         .        .        
         O641      O         0.0852    0.5000    0.5477    0.0       1.0000    Biso     1.000    
         O642      O         0.4148    0.5000    0.5477    0.0       1.0000    Biso     1.000    
         O643      O         0.4148    0.5000    0.9524    0.0       1.0000    Biso     1.000    
         O644      O         0.0852    0.5000    0.9524    0.0       1.0000    Biso     1.000    
         O645      O         0.0477    0.5852    0.5000    0.0       1.0000    Biso     1.000    
         O646      O         0.0477    0.9148    0.5000    0.0       1.0000    Biso     1.000    
         O647      O         0.4524    0.9148    0.5000    0.0       1.0000    Biso     1.000    
         O648      O         0.4524    0.5852    0.5000    0.0       1.0000    Biso     1.000    
         O649      O         0.0000    0.5477    0.5852    0.0       1.0000    Biso     1.000    
         O650      O         0.0000    0.5477    0.9148    0.0       1.0000    Biso     1.000    
         O651      O         0.0000    0.9524    0.9148    0.0       1.0000    Biso     1.000    
         O652      O         0.0000    0.9524    0.5852    0.0       1.0000    Biso     1.000    
         O653      O         0.0000    0.5852    0.9524    0.0       1.0000    Biso     1.000    
         O654      O         0.0000    0.9148    0.9524    0.0       1.0000    Biso     1.000    
         O655      O         0.0000    0.9148    0.5477    0.0       1.0000    Biso     1.000    
         O656      O         0.0000    0.5852    0.5477    0.0       1.0000    Biso     1.000    
         O657      O         0.0852    0.5477    0.5000    0.0       1.0000    Biso     1.000    
         O658      O         0.4148    0.5477    0.5000    0.0       1.0000    Biso     1.000    
         O659      O         0.4148    0.9524    0.5000    0.0       1.0000    Biso     1.000    
         O660      O         0.0852    0.9524    0.5000    0.0       1.0000    Biso     1.000    
         O661      O         0.0477    0.5000    0.9148    0.0       1.0000    Biso     1.000    
         O662      O         0.0477    0.5000    0.5852    0.0       1.0000    Biso     1.000    
         O663      O         0.4524    0.5000    0.5852    0.0       1.0000    Biso     1.000    
         O664      O         0.4524    0.5000    0.9148    0.0       1.0000    Biso     1.000    
         O665      O         0.0852    0.7500    0.7977    0.0       1.0000    Biso     1.000    
         O666      O         0.4148    0.7500    0.7977    0.0       1.0000    Biso     1.000    
         O667      O         0.4148    0.7500    0.7023    0.0       1.0000    Biso     1.000    
         O668      O         0.0852    0.7500    0.7023    0.0       1.0000    Biso     1.000    
         O669      O         0.0477    0.8352    0.7500    0.0       1.0000    Biso     1.000    
         O670      O         0.0477    0.6648    0.7500    0.0       1.0000    Biso     1.000    
         O671      O         0.4524    0.6648    0.7500    0.0       1.0000    Biso     1.000    
         O672      O         0.4524    0.8352    0.7500    0.0       1.0000    Biso     1.000    
         O673      O         0.0000    0.7977    0.8352    0.0       1.0000    Biso     1.000    
         O674      O         0.0000    0.7977    0.6648    0.0       1.0000    Biso     1.000    
         O675      O         0.0000    0.7023    0.6648    0.0       1.0000    Biso     1.000    
         O676      O         0.0000    0.7023    0.8352    0.0       1.0000    Biso     1.000    
         O677      O         0.0000    0.8352    0.7023    0.0       1.0000    Biso     1.000    
         O678      O         0.0000    0.6648    0.7023    0.0       1.0000    Biso     1.000    
         O679      O         0.0000    0.6648    0.7977    0.0       1.0000    Biso     1.000    
         O680      O         0.0000    0.8352    0.7977    0.0       1.0000    Biso     1.000    
         O681      O         0.0852    0.7977    0.7500    0.0       1.0000    Biso     1.000    
         O682      O         0.4148    0.7977    0.7500    0.0       1.0000    Biso     1.000    
         O683      O         0.4148    0.7023    0.7500    0.0       1.0000    Biso     1.000    
         O684      O         0.0852    0.7023    0.7500    0.0       1.0000    Biso     1.000    
         O685      O         0.0477    0.7500    0.6648    0.0       1.0000    Biso     1.000    
         O686      O         0.0477    0.7500    0.8352    0.0       1.0000    Biso     1.000    
         O687      O         0.4524    0.7500    0.8352    0.0       1.0000    Biso     1.000    
         O688      O         0.4524    0.7500    0.6648    0.0       1.0000    Biso     1.000    
         O689      O         0.3352    0.5000    0.7977    0.0       1.0000    Biso     1.000    
         O690      O         0.1648    0.5000    0.7977    0.0       1.0000    Biso     1.000    
         O691      O         0.1648    0.5000    0.7023    0.0       1.0000    Biso     1.000    
         O692      O         0.3352    0.5000    0.7023    0.0       1.0000    Biso     1.000    
         O693      O         0.2977    0.5852    0.7500    0.0       1.0000    Biso     1.000    
         O694      O         0.2977    0.9148    0.7500    0.0       1.0000    Biso     1.000    
         O695      O         0.2023    0.9148    0.7500    0.0       1.0000    Biso     1.000    
         O696      O         0.2023    0.5852    0.7500    0.0       1.0000    Biso     1.000    
         O697      O         0.2500    0.5477    0.8352    0.0       1.0000    Biso     1.000    
         O698      O         0.2500    0.5477    0.6648    0.0       1.0000    Biso     1.000    
         O699      O         0.2500    0.9524    0.6648    0.0       1.0000    Biso     1.000    
         O700      O         0.2500    0.9524    0.8352    0.0       1.0000    Biso     1.000    
         O701      O         0.2500    0.5852    0.7023    0.0       1.0000    Biso     1.000    
         O702      O         0.2500    0.9148    0.7023    0.0       1.0000    Biso     1.000    
         O703      O         0.2500    0.9148    0.7977    0.0       1.0000    Biso     1.000    
         O704      O         0.2500    0.5852    0.7977    0.0       1.0000    Biso     1.000    
         O705      O         0.3352    0.5477    0.7500    0.0       1.0000    Biso     1.000    
         O706      O         0.1648    0.5477    0.7500    0.0       1.0000    Biso     1.000    
         O707      O         0.1648    0.9524    0.7500    0.0       1.0000    Biso     1.000    
         O708      O         0.3352    0.9524    0.7500    0.0       1.0000    Biso     1.000    
         O709      O         0.2977    0.5000    0.6648    0.0       1.0000    Biso     1.000    
         O710      O         0.2977    0.5000    0.8352    0.0       1.0000    Biso     1.000    
         O711      O         0.2023    0.5000    0.8352    0.0       1.0000    Biso     1.000    
         O712      O         0.2023    0.5000    0.6648    0.0       1.0000    Biso     1.000    
         O713      O         0.3352    0.7500    0.5477    0.0       1.0000    Biso     1.000    
         O714      O         0.1648    0.7500    0.5477    0.0       1.0000    Biso     1.000    
         O715      O         0.1648    0.7500    0.9524    0.0       1.0000    Biso     1.000    
         O716      O         0.3352    0.7500    0.9524    0.0       1.0000    Biso     1.000    
         O717      O         0.2977    0.8352    0.5000    0.0       1.0000    Biso     1.000    
         O718      O         0.2977    0.6648    0.5000    0.0       1.0000    Biso     1.000    
         O719      O         0.2023    0.6648    0.5000    0.0       1.0000    Biso     1.000    
         O720      O         0.2023    0.8352    0.5000    0.0       1.0000    Biso     1.000    
         O721      O         0.2500    0.7977    0.5852    0.0       1.0000    Biso     1.000    
         O722      O         0.2500    0.7977    0.9148    0.0       1.0000    Biso     1.000    
         O723      O         0.2500    0.7023    0.9148    0.0       1.0000    Biso     1.000    
         O724      O         0.2500    0.7023    0.5852    0.0       1.0000    Biso     1.000    
         O725      O         0.2500    0.8352    0.9524    0.0       1.0000    Biso     1.000    
         O726      O         0.2500    0.6648    0.9524    0.0       1.0000    Biso     1.000    
         O727      O         0.2500    0.6648    0.5477    0.0       1.0000    Biso     1.000    
         O728      O         0.2500    0.8352    0.5477    0.0       1.0000    Biso     1.000    
         O729      O         0.3352    0.7977    0.5000    0.0       1.0000    Biso     1.000    
         O730      O         0.1648    0.7977    0.5000    0.0       1.0000    Biso     1.000    
         O731      O         0.1648    0.7023    0.5000    0.0       1.0000    Biso     1.000    
         O732      O         0.3352    0.7023    0.5000    0.0       1.0000    Biso     1.000    
         O733      O         0.2977    0.7500    0.9148    0.0       1.0000    Biso     1.000    
         O734      O         0.2977    0.7500    0.5852    0.0       1.0000    Biso     1.000    
         O735      O         0.2023    0.7500    0.5852    0.0       1.0000    Biso     1.000    
         O736      O         0.2023    0.7500    0.9148    0.0       1.0000    Biso     1.000    
         O737      O         0.0280    0.9720    0.9720    0.0       .         .        .        
         O738      O         0.4720    0.5280    0.9720    0.0       .         .        .        
         O739      O         0.4720    0.9720    0.5280    0.0       .         .        .        
         O740      O         0.0280    0.5280    0.5280    0.0       .         .        .        
         O741      O         0.4720    0.5280    0.5280    0.0       .         .        .        
         O742      O         0.0280    0.9720    0.5280    0.0       .         .        .        
         O743      O         0.4720    0.9720    0.9720    0.0       .         .        .        
         O744      O         0.0280    0.5280    0.9720    0.0       .         .        .        
         O745      O         0.0280    0.7220    0.7220    0.0       .         .        .        
         O746      O         0.4720    0.7780    0.7220    0.0       .         .        .        
         O747      O         0.4720    0.7220    0.7780    0.0       .         .        .        
         O748      O         0.0280    0.7780    0.7780    0.0       .         .        .        
         O749      O         0.4720    0.7780    0.7780    0.0       .         .        .        
         O750      O         0.0280    0.7220    0.7780    0.0       .         .        .        
         O751      O         0.4720    0.7220    0.7220    0.0       .         .        .        
         O752      O         0.0280    0.7780    0.7220    0.0       .         .        .        
         O753      O         0.2780    0.9720    0.7220    0.0       .         .        .        
         O754      O         0.2220    0.5280    0.7220    0.0       .         .        .        
         O755      O         0.2220    0.9720    0.7780    0.0       .         .        .        
         O756      O         0.2780    0.5280    0.7780    0.0       .         .        .        
         O757      O         0.2220    0.5280    0.7780    0.0       .         .        .        
         O758      O         0.2780    0.9720    0.7780    0.0       .         .        .        
         O759      O         0.2220    0.9720    0.7220    0.0       .         .        .        
         O760      O         0.2780    0.5280    0.7220    0.0       .         .        .        
         O761      O         0.2780    0.7220    0.9720    0.0       .         .        .        
         O762      O         0.2220    0.7780    0.9720    0.0       .         .        .        
         O763      O         0.2220    0.7220    0.5280    0.0       .         .        .        
         O764      O         0.2780    0.7780    0.5280    0.0       .         .        .        
         O765      O         0.2220    0.7780    0.5280    0.0       .         .        .        
         O766      O         0.2780    0.7220    0.5280    0.0       .         .        .        
         O767      O         0.2220    0.7220    0.9720    0.0       .         .        .        
         O768      O         0.2780    0.7780    0.9720    0.0       .         .        .        
         C961      C         0.0768    0.5000    0.9232    0.0       1.0000    Biso     1.000    
         C962      C         0.4232    0.5000    0.9232    0.0       1.0000    Biso     1.000    
         C963      C         0.4232    0.5000    0.5768    0.0       1.0000    Biso     1.000    
         C964      C         0.0768    0.5000    0.5768    0.0       1.0000    Biso     1.000    
         C965      C         0.4232    0.5768    0.5000    0.0       1.0000    Biso     1.000    
         C966      C         0.4232    0.9232    0.5000    0.0       1.0000    Biso     1.000    
         C967      C         0.0768    0.9232    0.5000    0.0       1.0000    Biso     1.000    
         C968      C         0.0768    0.5768    0.5000    0.0       1.0000    Biso     1.000    
         C969      C         0.0000    0.9232    0.5768    0.0       1.0000    Biso     1.000    
         C970      C         0.0000    0.9232    0.9232    0.0       1.0000    Biso     1.000    
         C971      C         0.0000    0.5768    0.9232    0.0       1.0000    Biso     1.000    
         C972      C         0.0000    0.5768    0.5768    0.0       1.0000    Biso     1.000    
         C973      C         0.0768    0.7500    0.6732    0.0       1.0000    Biso     1.000    
         C974      C         0.4232    0.7500    0.6732    0.0       1.0000    Biso     1.000    
         C975      C         0.4232    0.7500    0.8268    0.0       1.0000    Biso     1.000    
         C976      C         0.0768    0.7500    0.8268    0.0       1.0000    Biso     1.000    
         C977      C         0.4232    0.8268    0.7500    0.0       1.0000    Biso     1.000    
         C978      C         0.4232    0.6732    0.7500    0.0       1.0000    Biso     1.000    
         C979      C         0.0768    0.6732    0.7500    0.0       1.0000    Biso     1.000    
         C980      C         0.0768    0.8268    0.7500    0.0       1.0000    Biso     1.000    
         C981      C         0.0000    0.6732    0.8268    0.0       1.0000    Biso     1.000    
         C982      C         0.0000    0.6732    0.6732    0.0       1.0000    Biso     1.000    
         C983      C         0.0000    0.8268    0.6732    0.0       1.0000    Biso     1.000    
         C984      C         0.0000    0.8268    0.8268    0.0       1.0000    Biso     1.000    
         C985      C         0.3268    0.5000    0.6732    0.0       1.0000    Biso     1.000    
         C986      C         0.1732    0.5000    0.6732    0.0       1.0000    Biso     1.000    
         C987      C         0.1732    0.5000    0.8268    0.0       1.0000    Biso     1.000    
         C988      C         0.3268    0.5000    0.8268    0.0       1.0000    Biso     1.000    
         C989      C         0.1732    0.5768    0.7500    0.0       1.0000    Biso     1.000    
         C990      C         0.1732    0.9232    0.7500    0.0       1.0000    Biso     1.000    
         C991      C         0.3268    0.9232    0.7500    0.0       1.0000    Biso     1.000    
         C992      C         0.3268    0.5768    0.7500    0.0       1.0000    Biso     1.000    
         C993      C         0.2500    0.9232    0.8268    0.0       1.0000    Biso     1.000    
         C994      C         0.2500    0.9232    0.6732    0.0       1.0000    Biso     1.000    
         C995      C         0.2500    0.5768    0.6732    0.0       1.0000    Biso     1.000    
         C996      C         0.2500    0.5768    0.8268    0.0       1.0000    Biso     1.000    
         C997      C         0.3268    0.7500    0.9232    0.0       1.0000    Biso     1.000    
         C998      C         0.1732    0.7500    0.9232    0.0       1.0000    Biso     1.000    
         C999      C         0.1732    0.7500    0.5768    0.0       1.0000    Biso     1.000    
         C1000     C         0.3268    0.7500    0.5768    0.0       1.0000    Biso     1.000    
         C1001     C         0.1732    0.8268    0.5000    0.0       1.0000    Biso     1.000    
         C1002     C         0.1732    0.6732    0.5000    0.0       1.0000    Biso     1.000    
         C1003     C         0.3268    0.6732    0.5000    0.0       1.0000    Biso     1.000    
         C1004     C         0.3268    0.8268    0.5000    0.0       1.0000    Biso     1.000    
         C1005     C         0.2500    0.6732    0.5768    0.0       1.0000    Biso     1.000    
         C1006     C         0.2500    0.6732    0.9232    0.0       1.0000    Biso     1.000    
         C1007     C         0.2500    0.8268    0.9232    0.0       1.0000    Biso     1.000    
         C1008     C         0.2500    0.8268    0.5768    0.0       1.0000    Biso     1.000    
         C1009     C         0.1025    0.5000    0.6025    0.0       1.0000    Biso     1.000    
         C1010     C         0.3975    0.5000    0.6025    0.0       1.0000    Biso     1.000    
         C1011     C         0.3975    0.5000    0.8975    0.0       1.0000    Biso     1.000    
         C1012     C         0.1025    0.5000    0.8975    0.0       1.0000    Biso     1.000    
         C1013     C         0.1025    0.6025    0.5000    0.0       1.0000    Biso     1.000    
         C1014     C         0.1025    0.8975    0.5000    0.0       1.0000    Biso     1.000    
         C1015     C         0.3975    0.8975    0.5000    0.0       1.0000    Biso     1.000    
         C1016     C         0.3975    0.6025    0.5000    0.0       1.0000    Biso     1.000    
         C1017     C         0.0000    0.6025    0.6025    0.0       1.0000    Biso     1.000    
         C1018     C         0.0000    0.6025    0.8975    0.0       1.0000    Biso     1.000    
         C1019     C         0.0000    0.8975    0.8975    0.0       1.0000    Biso     1.000    
         C1020     C         0.0000    0.8975    0.6025    0.0       1.0000    Biso     1.000    
         C1021     C         0.1025    0.7500    0.8525    0.0       1.0000    Biso     1.000    
         C1022     C         0.3975    0.7500    0.8525    0.0       1.0000    Biso     1.000    
         C1023     C         0.3975    0.7500    0.6475    0.0       1.0000    Biso     1.000    
         C1024     C         0.1025    0.7500    0.6475    0.0       1.0000    Biso     1.000    
         C1025     C         0.1025    0.8525    0.7500    0.0       1.0000    Biso     1.000    
         C1026     C         0.1025    0.6475    0.7500    0.0       1.0000    Biso     1.000    
         C1027     C         0.3975    0.6475    0.7500    0.0       1.0000    Biso     1.000    
         C1028     C         0.3975    0.8525    0.7500    0.0       1.0000    Biso     1.000    
         C1029     C         0.0000    0.8525    0.8525    0.0       1.0000    Biso     1.000    
         C1030     C         0.0000    0.8525    0.6475    0.0       1.0000    Biso     1.000    
         C1031     C         0.0000    0.6475    0.6475    0.0       1.0000    Biso     1.000    
         C1032     C         0.0000    0.6475    0.8525    0.0       1.0000    Biso     1.000    
         C1033     C         0.3525    0.5000    0.8525    0.0       1.0000    Biso     1.000    
         C1034     C         0.1475    0.5000    0.8525    0.0       1.0000    Biso     1.000    
         C1035     C         0.1475    0.5000    0.6475    0.0       1.0000    Biso     1.000    
         C1036     C         0.3525    0.5000    0.6475    0.0       1.0000    Biso     1.000    
         C1037     C         0.3525    0.6025    0.7500    0.0       1.0000    Biso     1.000    
         C1038     C         0.3525    0.8975    0.7500    0.0       1.0000    Biso     1.000    
         C1039     C         0.1475    0.8975    0.7500    0.0       1.0000    Biso     1.000    
         C1040     C         0.1475    0.6025    0.7500    0.0       1.0000    Biso     1.000    
         C1041     C         0.2500    0.6025    0.8525    0.0       1.0000    Biso     1.000    
         C1042     C         0.2500    0.6025    0.6475    0.0       1.0000    Biso     1.000    
         C1043     C         0.2500    0.8975    0.6475    0.0       1.0000    Biso     1.000    
         C1044     C         0.2500    0.8975    0.8525    0.0       1.0000    Biso     1.000    
         C1045     C         0.3525    0.7500    0.6025    0.0       1.0000    Biso     1.000    
         C1046     C         0.1475    0.7500    0.6025    0.0       1.0000    Biso     1.000    
         C1047     C         0.1475    0.7500    0.8975    0.0       1.0000    Biso     1.000    
         C1048     C         0.3525    0.7500    0.8975    0.0       1.0000    Biso     1.000    
         C1049     C         0.3525    0.8525    0.5000    0.0       1.0000    Biso     1.000    
         C1050     C         0.3525    0.6475    0.5000    0.0       1.0000    Biso     1.000    
         C1051     C         0.1475    0.6475    0.5000    0.0       1.0000    Biso     1.000    
         C1052     C         0.1475    0.8525    0.5000    0.0       1.0000    Biso     1.000    
         C1053     C         0.2500    0.8525    0.6025    0.0       1.0000    Biso     1.000    
         C1054     C         0.2500    0.8525    0.8975    0.0       1.0000    Biso     1.000    
         C1055     C         0.2500    0.6475    0.8975    0.0       1.0000    Biso     1.000    
         C1056     C         0.2500    0.6475    0.6025    0.0       1.0000    Biso     1.000    
         C1057     C         0.1337    0.5000    0.5922    0.0       1.0000    Biso     1.000    
         C1058     C         0.3663    0.5000    0.5922    0.0       1.0000    Biso     1.000    
         C1059     C         0.3663    0.5000    0.9078    0.0       1.0000    Biso     1.000    
         C1060     C         0.1337    0.5000    0.9078    0.0       1.0000    Biso     1.000    
         C1061     C         0.0922    0.6337    0.5000    0.0       1.0000    Biso     1.000    
         C1062     C         0.0922    0.8663    0.5000    0.0       1.0000    Biso     1.000    
         C1063     C         0.4078    0.8663    0.5000    0.0       1.0000    Biso     1.000    
         C1064     C         0.4078    0.6337    0.5000    0.0       1.0000    Biso     1.000    
         C1065     C         0.0000    0.5922    0.6337    0.0       1.0000    Biso     1.000    
         C1066     C         0.0000    0.5922    0.8663    0.0       1.0000    Biso     1.000    
         C1067     C         0.0000    0.9078    0.8663    0.0       1.0000    Biso     1.000    
         C1068     C         0.0000    0.9078    0.6337    0.0       1.0000    Biso     1.000    
         C1069     C         0.0000    0.6337    0.9078    0.0       1.0000    Biso     1.000    
         C1070     C         0.0000    0.8663    0.9078    0.0       1.0000    Biso     1.000    
         C1071     C         0.0000    0.8663    0.5922    0.0       1.0000    Biso     1.000    
         C1072     C         0.0000    0.6337    0.5922    0.0       1.0000    Biso     1.000    
         C1073     C         0.1337    0.5922    0.5000    0.0       1.0000    Biso     1.000    
         C1074     C         0.3663    0.5922    0.5000    0.0       1.0000    Biso     1.000    
         C1075     C         0.3663    0.9078    0.5000    0.0       1.0000    Biso     1.000    
         C1076     C         0.1337    0.9078    0.5000    0.0       1.0000    Biso     1.000    
         C1077     C         0.0922    0.5000    0.8663    0.0       1.0000    Biso     1.000    
         C1078     C         0.0922    0.5000    0.6337    0.0       1.0000    Biso     1.000    
         C1079     C         0.4078    0.5000    0.6337    0.0       1.0000    Biso     1.000    
         C1080     C         0.4078    0.5000    0.8663    0.0       1.0000    Biso     1.000    
         C1081     C         0.1337    0.7500    0.8422    0.0       1.0000    Biso     1.000    
         C1082     C         0.3663    0.7500    0.8422    0.0       1.0000    Biso     1.000    
         C1083     C         0.3663    0.7500    0.6578    0.0       1.0000    Biso     1.000    
         C1084     C         0.1337    0.7500    0.6578    0.0       1.0000    Biso     1.000    
         C1085     C         0.0922    0.8838    0.7500    0.0       1.0000    Biso     1.000    
         C1086     C         0.0922    0.6163    0.7500    0.0       1.0000    Biso     1.000    
         C1087     C         0.4078    0.6163    0.7500    0.0       1.0000    Biso     1.000    
         C1088     C         0.4078    0.8838    0.7500    0.0       1.0000    Biso     1.000    
         C1089     C         0.0000    0.8422    0.8838    0.0       1.0000    Biso     1.000    
         C1090     C         0.0000    0.8422    0.6163    0.0       1.0000    Biso     1.000    
         C1091     C         0.0000    0.6578    0.6163    0.0       1.0000    Biso     1.000    
         C1092     C         0.0000    0.6578    0.8838    0.0       1.0000    Biso     1.000    
         C1093     C         0.0000    0.8838    0.6578    0.0       1.0000    Biso     1.000    
         C1094     C         0.0000    0.6163    0.6578    0.0       1.0000    Biso     1.000    
         C1095     C         0.0000    0.6163    0.8422    0.0       1.0000    Biso     1.000    
         C1096     C         0.0000    0.8838    0.8422    0.0       1.0000    Biso     1.000    
         C1097     C         0.1337    0.8422    0.7500    0.0       1.0000    Biso     1.000    
         C1098     C         0.3663    0.8422    0.7500    0.0       1.0000    Biso     1.000    
         C1099     C         0.3663    0.6578    0.7500    0.0       1.0000    Biso     1.000    
         C1100     C         0.1337    0.6578    0.7500    0.0       1.0000    Biso     1.000    
         C1101     C         0.0922    0.7500    0.6163    0.0       1.0000    Biso     1.000    
         C1102     C         0.0922    0.7500    0.8838    0.0       1.0000    Biso     1.000    
         C1103     C         0.4078    0.7500    0.8838    0.0       1.0000    Biso     1.000    
         C1104     C         0.4078    0.7500    0.6163    0.0       1.0000    Biso     1.000    
         C1105     C         0.3838    0.5000    0.8422    0.0       1.0000    Biso     1.000    
         C1106     C         0.1163    0.5000    0.8422    0.0       1.0000    Biso     1.000    
         C1107     C         0.1163    0.5000    0.6578    0.0       1.0000    Biso     1.000    
         C1108     C         0.3838    0.5000    0.6578    0.0       1.0000    Biso     1.000    
         C1109     C         0.3422    0.6337    0.7500    0.0       1.0000    Biso     1.000    
         C1110     C         0.3422    0.8663    0.7500    0.0       1.0000    Biso     1.000    
         C1111     C         0.1578    0.8663    0.7500    0.0       1.0000    Biso     1.000    
         C1112     C         0.1578    0.6337    0.7500    0.0       1.0000    Biso     1.000    
         C1113     C         0.2500    0.5922    0.8838    0.0       1.0000    Biso     1.000    
         C1114     C         0.2500    0.5922    0.6163    0.0       1.0000    Biso     1.000    
         C1115     C         0.2500    0.9078    0.6163    0.0       1.0000    Biso     1.000    
         C1116     C         0.2500    0.9078    0.8838    0.0       1.0000    Biso     1.000    
         C1117     C         0.2500    0.6337    0.6578    0.0       1.0000    Biso     1.000    
         C1118     C         0.2500    0.8663    0.6578    0.0       1.0000    Biso     1.000    
         C1119     C         0.2500    0.8663    0.8422    0.0       1.0000    Biso     1.000    
         C1120     C         0.2500    0.6337    0.8422    0.0       1.0000    Biso     1.000    
         C1121     C         0.3838    0.5922    0.7500    0.0       1.0000    Biso     1.000    
         C1122     C         0.1163    0.5922    0.7500    0.0       1.0000    Biso     1.000    
         C1123     C         0.1163    0.9078    0.7500    0.0       1.0000    Biso     1.000    
         C1124     C         0.3838    0.9078    0.7500    0.0       1.0000    Biso     1.000    
         C1125     C         0.3422    0.5000    0.6163    0.0       1.0000    Biso     1.000    
         C1126     C         0.3422    0.5000    0.8838    0.0       1.0000    Biso     1.000    
         C1127     C         0.1578    0.5000    0.8838    0.0       1.0000    Biso     1.000    
         C1128     C         0.1578    0.5000    0.6163    0.0       1.0000    Biso     1.000    
         C1129     C         0.3838    0.7500    0.5922    0.0       1.0000    Biso     1.000    
         C1130     C         0.1163    0.7500    0.5922    0.0       1.0000    Biso     1.000    
         C1131     C         0.1163    0.7500    0.9078    0.0       1.0000    Biso     1.000    
         C1132     C         0.3838    0.7500    0.9078    0.0       1.0000    Biso     1.000    
         C1133     C         0.3422    0.8838    0.5000    0.0       1.0000    Biso     1.000    
         C1134     C         0.3422    0.6163    0.5000    0.0       1.0000    Biso     1.000    
         C1135     C         0.1578    0.6163    0.5000    0.0       1.0000    Biso     1.000    
         C1136     C         0.1578    0.8838    0.5000    0.0       1.0000    Biso     1.000    
         C1137     C         0.2500    0.8422    0.6337    0.0       1.0000    Biso     1.000    
         C1138     C         0.2500    0.8422    0.8663    0.0       1.0000    Biso     1.000    
         C1139     C         0.2500    0.6578    0.8663    0.0       1.0000    Biso     1.000    
         C1140     C         0.2500    0.6578    0.6337    0.0       1.0000    Biso     1.000    
         C1141     C         0.2500    0.8838    0.9078    0.0       1.0000    Biso     1.000    
         C1142     C         0.2500    0.6163    0.9078    0.0       1.0000    Biso     1.000    
         C1143     C         0.2500    0.6163    0.5922    0.0       1.0000    Biso     1.000    
         C1144     C         0.2500    0.8838    0.5922    0.0       1.0000    Biso     1.000    
         C1145     C         0.3838    0.8422    0.5000    0.0       1.0000    Biso     1.000    
         C1146     C         0.1163    0.8422    0.5000    0.0       1.0000    Biso     1.000    
         C1147     C         0.1163    0.6578    0.5000    0.0       1.0000    Biso     1.000    
         C1148     C         0.3838    0.6578    0.5000    0.0       1.0000    Biso     1.000    
         C1149     C         0.3422    0.7500    0.8663    0.0       1.0000    Biso     1.000    
         C1150     C         0.3422    0.7500    0.6337    0.0       1.0000    Biso     1.000    
         C1151     C         0.1578    0.7500    0.6337    0.0       1.0000    Biso     1.000    
         C1152     C         0.1578    0.7500    0.8663    0.0       1.0000    Biso     1.000    
         H481      H         0.1395    0.5000    0.5679    0.0       1.0000    Biso     1.000    
         H482      H         0.3605    0.5000    0.5679    0.0       1.0000    Biso     1.000    
         H483      H         0.3605    0.5000    0.9321    0.0       1.0000    Biso     1.000    
         H484      H         0.1395    0.5000    0.9321    0.0       1.0000    Biso     1.000    
         H485      H         0.0679    0.6395    0.5000    0.0       1.0000    Biso     1.000    
         H486      H         0.0679    0.8605    0.5000    0.0       1.0000    Biso     1.000    
         H487      H         0.4321    0.8605    0.5000    0.0       1.0000    Biso     1.000    
         H488      H         0.4321    0.6395    0.5000    0.0       1.0000    Biso     1.000    
         H489      H         0.0000    0.5679    0.6395    0.0       1.0000    Biso     1.000    
         H490      H         0.0000    0.5679    0.8605    0.0       1.0000    Biso     1.000    
         H491      H         0.0000    0.9321    0.8605    0.0       1.0000    Biso     1.000    
         H492      H         0.0000    0.9321    0.6395    0.0       1.0000    Biso     1.000    
         H493      H         0.0000    0.6395    0.9321    0.0       1.0000    Biso     1.000    
         H494      H         0.0000    0.8605    0.9321    0.0       1.0000    Biso     1.000    
         H495      H         0.0000    0.8605    0.5679    0.0       1.0000    Biso     1.000    
         H496      H         0.0000    0.6395    0.5679    0.0       1.0000    Biso     1.000    
         H497      H         0.1395    0.5679    0.5000    0.0       1.0000    Biso     1.000    
         H498      H         0.3605    0.5679    0.5000    0.0       1.0000    Biso     1.000    
         H499      H         0.3605    0.9321    0.5000    0.0       1.0000    Biso     1.000    
         H500      H         0.1395    0.9321    0.5000    0.0       1.0000    Biso     1.000    
         H501      H         0.0679    0.5000    0.8605    0.0       1.0000    Biso     1.000    
         H502      H         0.0679    0.5000    0.6395    0.0       1.0000    Biso     1.000    
         H503      H         0.4321    0.5000    0.6395    0.0       1.0000    Biso     1.000    
         H504      H         0.4321    0.5000    0.8605    0.0       1.0000    Biso     1.000    
         H505      H         0.1395    0.7500    0.8179    0.0       1.0000    Biso     1.000    
         H506      H         0.3605    0.7500    0.8179    0.0       1.0000    Biso     1.000    
         H507      H         0.3605    0.7500    0.6821    0.0       1.0000    Biso     1.000    
         H508      H         0.1395    0.7500    0.6821    0.0       1.0000    Biso     1.000    
         H509      H         0.0679    0.8895    0.7500    0.0       1.0000    Biso     1.000    
         H510      H         0.0679    0.6105    0.7500    0.0       1.0000    Biso     1.000    
         H511      H         0.4321    0.6105    0.7500    0.0       1.0000    Biso     1.000    
         H512      H         0.4321    0.8895    0.7500    0.0       1.0000    Biso     1.000    
         H513      H         0.0000    0.8179    0.8895    0.0       1.0000    Biso     1.000    
         H514      H         0.0000    0.8179    0.6105    0.0       1.0000    Biso     1.000    
         H515      H         0.0000    0.6821    0.6105    0.0       1.0000    Biso     1.000    
         H516      H         0.0000    0.6821    0.8895    0.0       1.0000    Biso     1.000    
         H517      H         0.0000    0.8895    0.6821    0.0       1.0000    Biso     1.000    
         H518      H         0.0000    0.6105    0.6821    0.0       1.0000    Biso     1.000    
         H519      H         0.0000    0.6105    0.8179    0.0       1.0000    Biso     1.000    
         H520      H         0.0000    0.8895    0.8179    0.0       1.0000    Biso     1.000    
         H521      H         0.1395    0.8179    0.7500    0.0       1.0000    Biso     1.000    
         H522      H         0.3605    0.8179    0.7500    0.0       1.0000    Biso     1.000    
         H523      H         0.3605    0.6821    0.7500    0.0       1.0000    Biso     1.000    
         H524      H         0.1395    0.6821    0.7500    0.0       1.0000    Biso     1.000    
         H525      H         0.0679    0.7500    0.6105    0.0       1.0000    Biso     1.000    
         H526      H         0.0679    0.7500    0.8895    0.0       1.0000    Biso     1.000    
         H527      H         0.4321    0.7500    0.8895    0.0       1.0000    Biso     1.000    
         H528      H         0.4321    0.7500    0.6105    0.0       1.0000    Biso     1.000    
         H529      H         0.3895    0.5000    0.8179    0.0       1.0000    Biso     1.000    
         H530      H         0.1105    0.5000    0.8179    0.0       1.0000    Biso     1.000    
         H531      H         0.1105    0.5000    0.6821    0.0       1.0000    Biso     1.000    
         H532      H         0.3895    0.5000    0.6821    0.0       1.0000    Biso     1.000    
         H533      H         0.3179    0.6395    0.7500    0.0       1.0000    Biso     1.000    
         H534      H         0.3179    0.8605    0.7500    0.0       1.0000    Biso     1.000    
         H535      H         0.1821    0.8605    0.7500    0.0       1.0000    Biso     1.000    
         H536      H         0.1821    0.6395    0.7500    0.0       1.0000    Biso     1.000    
         H537      H         0.2500    0.5679    0.8895    0.0       1.0000    Biso     1.000    
         H538      H         0.2500    0.5679    0.6105    0.0       1.0000    Biso     1.000    
         H539      H         0.2500    0.9321    0.6105    0.0       1.0000    Biso     1.000    
         H540      H         0.2500    0.9321    0.8895    0.0       1.0000    Biso     1.000    
         H541      H         0.2500    0.6395    0.6821    0.0       1.0000    Biso     1.000    
         H542      H         0.2500    0.8605    0.6821    0.0       1.0000    Biso     1.000    
         H543      H         0.2500    0.8605    0.8179    0.0       1.0000    Biso     1.000    
         H544      H         0.2500    0.6395    0.8179    0.0       1.0000    Biso     1.000    
         H545      H         0.3895    0.5679    0.7500    0.0       1.0000    Biso     1.000    
         H546      H         0.1105    0.5679    0.7500    0.0       1.0000    Biso     1.000    
         H547      H         0.1105    0.9321    0.7500    0.0       1.0000    Biso     1.000    
         H548      H         0.3895    0.9321    0.7500    0.0       1.0000    Biso     1.000    
         H549      H         0.3179    0.5000    0.6105    0.0       1.0000    Biso     1.000    
         H550      H         0.3179    0.5000    0.8895    0.0       1.0000    Biso     1.000    
         H551      H         0.1821    0.5000    0.8895    0.0       1.0000    Biso     1.000    
         H552      H         0.1821    0.5000    0.6105    0.0       1.0000    Biso     1.000    
         H553      H         0.3895    0.7500    0.5679    0.0       1.0000    Biso     1.000    
         H554      H         0.1105    0.7500    0.5679    0.0       1.0000    Biso     1.000    
         H555      H         0.1105    0.7500    0.9321    0.0       1.0000    Biso     1.000    
         H556      H         0.3895    0.7500    0.9321    0.0       1.0000    Biso     1.000    
         H557      H         0.3179    0.8895    0.5000    0.0       1.0000    Biso     1.000    
         H558      H         0.3179    0.6105    0.5000    0.0       1.0000    Biso     1.000    
         H559      H         0.1821    0.6105    0.5000    0.0       1.0000    Biso     1.000    
         H560      H         0.1821    0.8895    0.5000    0.0       1.0000    Biso     1.000    
         H561      H         0.2500    0.8179    0.6395    0.0       1.0000    Biso     1.000    
         H562      H         0.2500    0.8179    0.8605    0.0       1.0000    Biso     1.000    
         H563      H         0.2500    0.6821    0.8605    0.0       1.0000    Biso     1.000    
         H564      H         0.2500    0.6821    0.6395    0.0       1.0000    Biso     1.000    
         H565      H         0.2500    0.8895    0.9321    0.0       1.0000    Biso     1.000    
         H566      H         0.2500    0.6105    0.9321    0.0       1.0000    Biso     1.000    
         H567      H         0.2500    0.6105    0.5679    0.0       1.0000    Biso     1.000    
         H568      H         0.2500    0.8895    0.5679    0.0       1.0000    Biso     1.000    
         H569      H         0.3895    0.8179    0.5000    0.0       1.0000    Biso     1.000    
         H570      H         0.1105    0.8179    0.5000    0.0       1.0000    Biso     1.000    
         H571      H         0.1105    0.6821    0.5000    0.0       1.0000    Biso     1.000    
         H572      H         0.3895    0.6821    0.5000    0.0       1.0000    Biso     1.000    
         H573      H         0.3179    0.7500    0.8605    0.0       1.0000    Biso     1.000    
         H574      H         0.3179    0.7500    0.6395    0.0       1.0000    Biso     1.000    
         H575      H         0.1821    0.7500    0.6395    0.0       1.0000    Biso     1.000    
         H576      H         0.1821    0.7500    0.8605    0.0       1.0000    Biso     1.000    
         Zr76      Zr        0.5599    0.0000    0.5000    0.0       .         .        .        
         Zr77      Zr        0.5000    0.0600    0.5000    0.0       .         .        .        
         Zr78      Zr        0.5000    0.4401    0.5000    0.0       .         .        .        
         Zr79      Zr        0.9401    0.2500    0.7500    0.0       .         .        .        
         Zr80      Zr        0.5000    0.3100    0.7500    0.0       .         .        .        
         Zr81      Zr        0.5000    0.2500    0.6900    0.0       .         .        .        
         Zr82      Zr        0.7500    0.0600    0.7500    0.0       .         .        .        
         Zr83      Zr        0.7500    0.4401    0.7500    0.0       .         .        .        
         Zr84      Zr        0.7500    0.0000    0.8099    0.0       .         .        .        
         Zr85      Zr        0.7500    0.0000    0.6900    0.0       .         .        .        
         Zr86      Zr        0.7500    0.3100    0.5000    0.0       .         .        .        
         Zr87      Zr        0.7500    0.2500    0.5599    0.0       .         .        .        
         Zr88      Zr        0.7500    0.2500    0.9401    0.0       .         .        .        
         O769      O         0.5852    0.0000    0.5477    0.0       1.0000    Biso     1.000    
         O770      O         0.9148    0.0000    0.5477    0.0       1.0000    Biso     1.000    
         O771      O         0.9148    0.0000    0.9524    0.0       1.0000    Biso     1.000    
         O772      O         0.5852    0.0000    0.9524    0.0       1.0000    Biso     1.000    
         O773      O         0.5477    0.0852    0.5000    0.0       1.0000    Biso     1.000    
         O774      O         0.5477    0.4148    0.5000    0.0       1.0000    Biso     1.000    
         O775      O         0.9524    0.4148    0.5000    0.0       1.0000    Biso     1.000    
         O776      O         0.9524    0.0852    0.5000    0.0       1.0000    Biso     1.000    
         O777      O         0.5000    0.0477    0.5852    0.0       1.0000    Biso     1.000    
         O778      O         0.5000    0.0477    0.9148    0.0       1.0000    Biso     1.000    
         O779      O         0.5000    0.4524    0.9148    0.0       1.0000    Biso     1.000    
         O780      O         0.5000    0.4524    0.5852    0.0       1.0000    Biso     1.000    
         O781      O         0.5000    0.0852    0.9524    0.0       1.0000    Biso     1.000    
         O782      O         0.5000    0.4148    0.9524    0.0       1.0000    Biso     1.000    
         O783      O         0.5000    0.4148    0.5477    0.0       1.0000    Biso     1.000    
         O784      O         0.5000    0.0852    0.5477    0.0       1.0000    Biso     1.000    
         O785      O         0.5852    0.0477    0.5000    0.0       1.0000    Biso     1.000    
         O786      O         0.9148    0.0477    0.5000    0.0       1.0000    Biso     1.000    
         O787      O         0.9148    0.4524    0.5000    0.0       1.0000    Biso     1.000    
         O788      O         0.5852    0.4524    0.5000    0.0       1.0000    Biso     1.000    
         O789      O         0.5477    0.0000    0.9148    0.0       1.0000    Biso     1.000    
         O790      O         0.5477    0.0000    0.5852    0.0       1.0000    Biso     1.000    
         O791      O         0.9524    0.0000    0.5852    0.0       1.0000    Biso     1.000    
         O792      O         0.9524    0.0000    0.9148    0.0       1.0000    Biso     1.000    
         O793      O         0.5852    0.2500    0.7977    0.0       1.0000    Biso     1.000    
         O794      O         0.9148    0.2500    0.7977    0.0       1.0000    Biso     1.000    
         O795      O         0.9148    0.2500    0.7023    0.0       1.0000    Biso     1.000    
         O796      O         0.5852    0.2500    0.7023    0.0       1.0000    Biso     1.000    
         O797      O         0.5477    0.3352    0.7500    0.0       1.0000    Biso     1.000    
         O798      O         0.5477    0.1648    0.7500    0.0       1.0000    Biso     1.000    
         O799      O         0.9524    0.1648    0.7500    0.0       1.0000    Biso     1.000    
         O800      O         0.9524    0.3352    0.7500    0.0       1.0000    Biso     1.000    
         O801      O         0.5000    0.2977    0.8352    0.0       1.0000    Biso     1.000    
         O802      O         0.5000    0.2977    0.6648    0.0       1.0000    Biso     1.000    
         O803      O         0.5000    0.2023    0.6648    0.0       1.0000    Biso     1.000    
         O804      O         0.5000    0.2023    0.8352    0.0       1.0000    Biso     1.000    
         O805      O         0.5000    0.3352    0.7023    0.0       1.0000    Biso     1.000    
         O806      O         0.5000    0.1648    0.7023    0.0       1.0000    Biso     1.000    
         O807      O         0.5000    0.1648    0.7977    0.0       1.0000    Biso     1.000    
         O808      O         0.5000    0.3352    0.7977    0.0       1.0000    Biso     1.000    
         O809      O         0.5852    0.2977    0.7500    0.0       1.0000    Biso     1.000    
         O810      O         0.9148    0.2977    0.7500    0.0       1.0000    Biso     1.000    
         O811      O         0.9148    0.2023    0.7500    0.0       1.0000    Biso     1.000    
         O812      O         0.5852    0.2023    0.7500    0.0       1.0000    Biso     1.000    
         O813      O         0.5477    0.2500    0.6648    0.0       1.0000    Biso     1.000    
         O814      O         0.5477    0.2500    0.8352    0.0       1.0000    Biso     1.000    
         O815      O         0.9524    0.2500    0.8352    0.0       1.0000    Biso     1.000    
         O816      O         0.9524    0.2500    0.6648    0.0       1.0000    Biso     1.000    
         O817      O         0.8352    0.0000    0.7977    0.0       1.0000    Biso     1.000    
         O818      O         0.6648    0.0000    0.7977    0.0       1.0000    Biso     1.000    
         O819      O         0.6648    0.0000    0.7023    0.0       1.0000    Biso     1.000    
         O820      O         0.8352    0.0000    0.7023    0.0       1.0000    Biso     1.000    
         O821      O         0.7977    0.0852    0.7500    0.0       1.0000    Biso     1.000    
         O822      O         0.7977    0.4148    0.7500    0.0       1.0000    Biso     1.000    
         O823      O         0.7023    0.4148    0.7500    0.0       1.0000    Biso     1.000    
         O824      O         0.7023    0.0852    0.7500    0.0       1.0000    Biso     1.000    
         O825      O         0.7500    0.0477    0.8352    0.0       1.0000    Biso     1.000    
         O826      O         0.7500    0.0477    0.6648    0.0       1.0000    Biso     1.000    
         O827      O         0.7500    0.4524    0.6648    0.0       1.0000    Biso     1.000    
         O828      O         0.7500    0.4524    0.8352    0.0       1.0000    Biso     1.000    
         O829      O         0.7500    0.0852    0.7023    0.0       1.0000    Biso     1.000    
         O830      O         0.7500    0.4148    0.7023    0.0       1.0000    Biso     1.000    
         O831      O         0.7500    0.4148    0.7977    0.0       1.0000    Biso     1.000    
         O832      O         0.7500    0.0852    0.7977    0.0       1.0000    Biso     1.000    
         O833      O         0.8352    0.0477    0.7500    0.0       1.0000    Biso     1.000    
         O834      O         0.6648    0.0477    0.7500    0.0       1.0000    Biso     1.000    
         O835      O         0.6648    0.4524    0.7500    0.0       1.0000    Biso     1.000    
         O836      O         0.8352    0.4524    0.7500    0.0       1.0000    Biso     1.000    
         O837      O         0.7977    0.0000    0.6648    0.0       1.0000    Biso     1.000    
         O838      O         0.7977    0.0000    0.8352    0.0       1.0000    Biso     1.000    
         O839      O         0.7023    0.0000    0.8352    0.0       1.0000    Biso     1.000    
         O840      O         0.7023    0.0000    0.6648    0.0       1.0000    Biso     1.000    
         O841      O         0.8352    0.2500    0.5477    0.0       1.0000    Biso     1.000    
         O842      O         0.6648    0.2500    0.5477    0.0       1.0000    Biso     1.000    
         O843      O         0.6648    0.2500    0.9524    0.0       1.0000    Biso     1.000    
         O844      O         0.8352    0.2500    0.9524    0.0       1.0000    Biso     1.000    
         O845      O         0.7977    0.3352    0.5000    0.0       1.0000    Biso     1.000    
         O846      O         0.7977    0.1648    0.5000    0.0       1.0000    Biso     1.000    
         O847      O         0.7023    0.1648    0.5000    0.0       1.0000    Biso     1.000    
         O848      O         0.7023    0.3352    0.5000    0.0       1.0000    Biso     1.000    
         O849      O         0.7500    0.2977    0.5852    0.0       1.0000    Biso     1.000    
         O850      O         0.7500    0.2977    0.9148    0.0       1.0000    Biso     1.000    
         O851      O         0.7500    0.2023    0.9148    0.0       1.0000    Biso     1.000    
         O852      O         0.7500    0.2023    0.5852    0.0       1.0000    Biso     1.000    
         O853      O         0.7500    0.3352    0.9524    0.0       1.0000    Biso     1.000    
         O854      O         0.7500    0.1648    0.9524    0.0       1.0000    Biso     1.000    
         O855      O         0.7500    0.1648    0.5477    0.0       1.0000    Biso     1.000    
         O856      O         0.7500    0.3352    0.5477    0.0       1.0000    Biso     1.000    
         O857      O         0.8352    0.2977    0.5000    0.0       1.0000    Biso     1.000    
         O858      O         0.6648    0.2977    0.5000    0.0       1.0000    Biso     1.000    
         O859      O         0.6648    0.2023    0.5000    0.0       1.0000    Biso     1.000    
         O860      O         0.8352    0.2023    0.5000    0.0       1.0000    Biso     1.000    
         O861      O         0.7977    0.2500    0.9148    0.0       1.0000    Biso     1.000    
         O862      O         0.7977    0.2500    0.5852    0.0       1.0000    Biso     1.000    
         O863      O         0.7023    0.2500    0.5852    0.0       1.0000    Biso     1.000    
         O864      O         0.7023    0.2500    0.9148    0.0       1.0000    Biso     1.000    
         O865      O         0.5280    0.4720    0.9720    0.0       .         .        .        
         O866      O         0.9720    0.0280    0.9720    0.0       .         .        .        
         O867      O         0.9720    0.4720    0.5280    0.0       .         .        .        
         O868      O         0.5280    0.0280    0.5280    0.0       .         .        .        
         O869      O         0.9720    0.0280    0.5280    0.0       .         .        .        
         O870      O         0.5280    0.4720    0.5280    0.0       .         .        .        
         O871      O         0.9720    0.4720    0.9720    0.0       .         .        .        
         O872      O         0.5280    0.0280    0.9720    0.0       .         .        .        
         O873      O         0.5280    0.2220    0.7220    0.0       .         .        .        
         O874      O         0.9720    0.2780    0.7220    0.0       .         .        .        
         O875      O         0.9720    0.2220    0.7780    0.0       .         .        .        
         O876      O         0.5280    0.2780    0.7780    0.0       .         .        .        
         O877      O         0.9720    0.2780    0.7780    0.0       .         .        .        
         O878      O         0.5280    0.2220    0.7780    0.0       .         .        .        
         O879      O         0.9720    0.2220    0.7220    0.0       .         .        .        
         O880      O         0.5280    0.2780    0.7220    0.0       .         .        .        
         O881      O         0.7780    0.4720    0.7220    0.0       .         .        .        
         O882      O         0.7220    0.0280    0.7220    0.0       .         .        .        
         O883      O         0.7220    0.4720    0.7780    0.0       .         .        .        
         O884      O         0.7780    0.0280    0.7780    0.0       .         .        .        
         O885      O         0.7220    0.0280    0.7780    0.0       .         .        .        
         O886      O         0.7780    0.4720    0.7780    0.0       .         .        .        
         O887      O         0.7220    0.4720    0.7220    0.0       .         .        .        
         O888      O         0.7780    0.0280    0.7220    0.0       .         .        .        
         O889      O         0.7780    0.2220    0.9720    0.0       .         .        .        
         O890      O         0.7220    0.2780    0.9720    0.0       .         .        .        
         O891      O         0.7220    0.2220    0.5280    0.0       .         .        .        
         O892      O         0.7780    0.2780    0.5280    0.0       .         .        .        
         O893      O         0.7220    0.2780    0.5280    0.0       .         .        .        
         O894      O         0.7780    0.2220    0.5280    0.0       .         .        .        
         O895      O         0.7220    0.2220    0.9720    0.0       .         .        .        
         O896      O         0.7780    0.2780    0.9720    0.0       .         .        .        
         C1153     C         0.5768    0.0000    0.9232    0.0       1.0000    Biso     1.000    
         C1154     C         0.9232    0.0000    0.9232    0.0       1.0000    Biso     1.000    
         C1155     C         0.9232    0.0000    0.5768    0.0       1.0000    Biso     1.000    
         C1156     C         0.5768    0.0000    0.5768    0.0       1.0000    Biso     1.000    
         C1157     C         0.9232    0.0768    0.5000    0.0       1.0000    Biso     1.000    
         C1158     C         0.9232    0.4232    0.5000    0.0       1.0000    Biso     1.000    
         C1159     C         0.5768    0.4232    0.5000    0.0       1.0000    Biso     1.000    
         C1160     C         0.5768    0.0768    0.5000    0.0       1.0000    Biso     1.000    
         C1161     C         0.5000    0.4232    0.5768    0.0       1.0000    Biso     1.000    
         C1162     C         0.5000    0.4232    0.9232    0.0       1.0000    Biso     1.000    
         C1163     C         0.5000    0.0768    0.9232    0.0       1.0000    Biso     1.000    
         C1164     C         0.5000    0.0768    0.5768    0.0       1.0000    Biso     1.000    
         C1165     C         0.5768    0.2500    0.6732    0.0       1.0000    Biso     1.000    
         C1166     C         0.9232    0.2500    0.6732    0.0       1.0000    Biso     1.000    
         C1167     C         0.9232    0.2500    0.8268    0.0       1.0000    Biso     1.000    
         C1168     C         0.5768    0.2500    0.8268    0.0       1.0000    Biso     1.000    
         C1169     C         0.9232    0.3268    0.7500    0.0       1.0000    Biso     1.000    
         C1170     C         0.9232    0.1732    0.7500    0.0       1.0000    Biso     1.000    
         C1171     C         0.5768    0.1732    0.7500    0.0       1.0000    Biso     1.000    
         C1172     C         0.5768    0.3268    0.7500    0.0       1.0000    Biso     1.000    
         C1173     C         0.5000    0.1732    0.8268    0.0       1.0000    Biso     1.000    
         C1174     C         0.5000    0.1732    0.6732    0.0       1.0000    Biso     1.000    
         C1175     C         0.5000    0.3268    0.6732    0.0       1.0000    Biso     1.000    
         C1176     C         0.5000    0.3268    0.8268    0.0       1.0000    Biso     1.000    
         C1177     C         0.8268    0.0000    0.6732    0.0       1.0000    Biso     1.000    
         C1178     C         0.6732    0.0000    0.6732    0.0       1.0000    Biso     1.000    
         C1179     C         0.6732    0.0000    0.8268    0.0       1.0000    Biso     1.000    
         C1180     C         0.8268    0.0000    0.8268    0.0       1.0000    Biso     1.000    
         C1181     C         0.6732    0.0768    0.7500    0.0       1.0000    Biso     1.000    
         C1182     C         0.6732    0.4232    0.7500    0.0       1.0000    Biso     1.000    
         C1183     C         0.8268    0.4232    0.7500    0.0       1.0000    Biso     1.000    
         C1184     C         0.8268    0.0768    0.7500    0.0       1.0000    Biso     1.000    
         C1185     C         0.7500    0.4232    0.8268    0.0       1.0000    Biso     1.000    
         C1186     C         0.7500    0.4232    0.6732    0.0       1.0000    Biso     1.000    
         C1187     C         0.7500    0.0768    0.6732    0.0       1.0000    Biso     1.000    
         C1188     C         0.7500    0.0768    0.8268    0.0       1.0000    Biso     1.000    
         C1189     C         0.8268    0.2500    0.9232    0.0       1.0000    Biso     1.000    
         C1190     C         0.6732    0.2500    0.9232    0.0       1.0000    Biso     1.000    
         C1191     C         0.6732    0.2500    0.5768    0.0       1.0000    Biso     1.000    
         C1192     C         0.8268    0.2500    0.5768    0.0       1.0000    Biso     1.000    
         C1193     C         0.6732    0.3268    0.5000    0.0       1.0000    Biso     1.000    
         C1194     C         0.6732    0.1732    0.5000    0.0       1.0000    Biso     1.000    
         C1195     C         0.8268    0.1732    0.5000    0.0       1.0000    Biso     1.000    
         C1196     C         0.8268    0.3268    0.5000    0.0       1.0000    Biso     1.000    
         C1197     C         0.7500    0.1732    0.5768    0.0       1.0000    Biso     1.000    
         C1198     C         0.7500    0.1732    0.9232    0.0       1.0000    Biso     1.000    
         C1199     C         0.7500    0.3268    0.9232    0.0       1.0000    Biso     1.000    
         C1200     C         0.7500    0.3268    0.5768    0.0       1.0000    Biso     1.000    
         C1201     C         0.6025    0.0000    0.6025    0.0       1.0000    Biso     1.000    
         C1202     C         0.8975    0.0000    0.6025    0.0       1.0000    Biso     1.000    
         C1203     C         0.8975    0.0000    0.8975    0.0       1.0000    Biso     1.000    
         C1204     C         0.6025    0.0000    0.8975    0.0       1.0000    Biso     1.000    
         C1205     C         0.6025    0.1025    0.5000    0.0       1.0000    Biso     1.000    
         C1206     C         0.6025    0.3975    0.5000    0.0       1.0000    Biso     1.000    
         C1207     C         0.8975    0.3975    0.5000    0.0       1.0000    Biso     1.000    
         C1208     C         0.8975    0.1025    0.5000    0.0       1.0000    Biso     1.000    
         C1209     C         0.5000    0.1025    0.6025    0.0       1.0000    Biso     1.000    
         C1210     C         0.5000    0.1025    0.8975    0.0       1.0000    Biso     1.000    
         C1211     C         0.5000    0.3975    0.8975    0.0       1.0000    Biso     1.000    
         C1212     C         0.5000    0.3975    0.6025    0.0       1.0000    Biso     1.000    
         C1213     C         0.6025    0.2500    0.8525    0.0       1.0000    Biso     1.000    
         C1214     C         0.8975    0.2500    0.8525    0.0       1.0000    Biso     1.000    
         C1215     C         0.8975    0.2500    0.6475    0.0       1.0000    Biso     1.000    
         C1216     C         0.6025    0.2500    0.6475    0.0       1.0000    Biso     1.000    
         C1217     C         0.6025    0.3525    0.7500    0.0       1.0000    Biso     1.000    
         C1218     C         0.6025    0.1475    0.7500    0.0       1.0000    Biso     1.000    
         C1219     C         0.8975    0.1475    0.7500    0.0       1.0000    Biso     1.000    
         C1220     C         0.8975    0.3525    0.7500    0.0       1.0000    Biso     1.000    
         C1221     C         0.5000    0.3525    0.8525    0.0       1.0000    Biso     1.000    
         C1222     C         0.5000    0.3525    0.6475    0.0       1.0000    Biso     1.000    
         C1223     C         0.5000    0.1475    0.6475    0.0       1.0000    Biso     1.000    
         C1224     C         0.5000    0.1475    0.8525    0.0       1.0000    Biso     1.000    
         C1225     C         0.8525    0.0000    0.8525    0.0       1.0000    Biso     1.000    
         C1226     C         0.6475    0.0000    0.8525    0.0       1.0000    Biso     1.000    
         C1227     C         0.6475    0.0000    0.6475    0.0       1.0000    Biso     1.000    
         C1228     C         0.8525    0.0000    0.6475    0.0       1.0000    Biso     1.000    
         C1229     C         0.8525    0.1025    0.7500    0.0       1.0000    Biso     1.000    
         C1230     C         0.8525    0.3975    0.7500    0.0       1.0000    Biso     1.000    
         C1231     C         0.6475    0.3975    0.7500    0.0       1.0000    Biso     1.000    
         C1232     C         0.6475    0.1025    0.7500    0.0       1.0000    Biso     1.000    
         C1233     C         0.7500    0.1025    0.8525    0.0       1.0000    Biso     1.000    
         C1234     C         0.7500    0.1025    0.6475    0.0       1.0000    Biso     1.000    
         C1235     C         0.7500    0.3975    0.6475    0.0       1.0000    Biso     1.000    
         C1236     C         0.7500    0.3975    0.8525    0.0       1.0000    Biso     1.000    
         C1237     C         0.8525    0.2500    0.6025    0.0       1.0000    Biso     1.000    
         C1238     C         0.6475    0.2500    0.6025    0.0       1.0000    Biso     1.000    
         C1239     C         0.6475    0.2500    0.8975    0.0       1.0000    Biso     1.000    
         C1240     C         0.8525    0.2500    0.8975    0.0       1.0000    Biso     1.000    
         C1241     C         0.8525    0.3525    0.5000    0.0       1.0000    Biso     1.000    
         C1242     C         0.8525    0.1475    0.5000    0.0       1.0000    Biso     1.000    
         C1243     C         0.6475    0.1475    0.5000    0.0       1.0000    Biso     1.000    
         C1244     C         0.6475    0.3525    0.5000    0.0       1.0000    Biso     1.000    
         C1245     C         0.7500    0.3525    0.6025    0.0       1.0000    Biso     1.000    
         C1246     C         0.7500    0.3525    0.8975    0.0       1.0000    Biso     1.000    
         C1247     C         0.7500    0.1475    0.8975    0.0       1.0000    Biso     1.000    
         C1248     C         0.7500    0.1475    0.6025    0.0       1.0000    Biso     1.000    
         C1249     C         0.6337    0.0000    0.5922    0.0       1.0000    Biso     1.000    
         C1250     C         0.8663    0.0000    0.5922    0.0       1.0000    Biso     1.000    
         C1251     C         0.8663    0.0000    0.9078    0.0       1.0000    Biso     1.000    
         C1252     C         0.6337    0.0000    0.9078    0.0       1.0000    Biso     1.000    
         C1253     C         0.5922    0.1337    0.5000    0.0       1.0000    Biso     1.000    
         C1254     C         0.5922    0.3663    0.5000    0.0       1.0000    Biso     1.000    
         C1255     C         0.9078    0.3663    0.5000    0.0       1.0000    Biso     1.000    
         C1256     C         0.9078    0.1337    0.5000    0.0       1.0000    Biso     1.000    
         C1257     C         0.5000    0.0922    0.6337    0.0       1.0000    Biso     1.000    
         C1258     C         0.5000    0.0922    0.8663    0.0       1.0000    Biso     1.000    
         C1259     C         0.5000    0.4078    0.8663    0.0       1.0000    Biso     1.000    
         C1260     C         0.5000    0.4078    0.6337    0.0       1.0000    Biso     1.000    
         C1261     C         0.5000    0.1337    0.9078    0.0       1.0000    Biso     1.000    
         C1262     C         0.5000    0.3663    0.9078    0.0       1.0000    Biso     1.000    
         C1263     C         0.5000    0.3663    0.5922    0.0       1.0000    Biso     1.000    
         C1264     C         0.5000    0.1337    0.5922    0.0       1.0000    Biso     1.000    
         C1265     C         0.6337    0.0922    0.5000    0.0       1.0000    Biso     1.000    
         C1266     C         0.8663    0.0922    0.5000    0.0       1.0000    Biso     1.000    
         C1267     C         0.8663    0.4078    0.5000    0.0       1.0000    Biso     1.000    
         C1268     C         0.6337    0.4078    0.5000    0.0       1.0000    Biso     1.000    
         C1269     C         0.5922    0.0000    0.8663    0.0       1.0000    Biso     1.000    
         C1270     C         0.5922    0.0000    0.6337    0.0       1.0000    Biso     1.000    
         C1271     C         0.9078    0.0000    0.6337    0.0       1.0000    Biso     1.000    
         C1272     C         0.9078    0.0000    0.8663    0.0       1.0000    Biso     1.000    
         C1273     C         0.6337    0.2500    0.8422    0.0       1.0000    Biso     1.000    
         C1274     C         0.8663    0.2500    0.8422    0.0       1.0000    Biso     1.000    
         C1275     C         0.8663    0.2500    0.6578    0.0       1.0000    Biso     1.000    
         C1276     C         0.6337    0.2500    0.6578    0.0       1.0000    Biso     1.000    
         C1277     C         0.5922    0.3838    0.7500    0.0       1.0000    Biso     1.000    
         C1278     C         0.5922    0.1163    0.7500    0.0       1.0000    Biso     1.000    
         C1279     C         0.9078    0.1163    0.7500    0.0       1.0000    Biso     1.000    
         C1280     C         0.9078    0.3838    0.7500    0.0       1.0000    Biso     1.000    
         C1281     C         0.5000    0.3422    0.8838    0.0       1.0000    Biso     1.000    
         C1282     C         0.5000    0.3422    0.6163    0.0       1.0000    Biso     1.000    
         C1283     C         0.5000    0.1578    0.6163    0.0       1.0000    Biso     1.000    
         C1284     C         0.5000    0.1578    0.8838    0.0       1.0000    Biso     1.000    
         C1285     C         0.5000    0.3838    0.6578    0.0       1.0000    Biso     1.000    
         C1286     C         0.5000    0.1163    0.6578    0.0       1.0000    Biso     1.000    
         C1287     C         0.5000    0.1163    0.8422    0.0       1.0000    Biso     1.000    
         C1288     C         0.5000    0.3838    0.8422    0.0       1.0000    Biso     1.000    
         C1289     C         0.6337    0.3422    0.7500    0.0       1.0000    Biso     1.000    
         C1290     C         0.8663    0.3422    0.7500    0.0       1.0000    Biso     1.000    
         C1291     C         0.8663    0.1578    0.7500    0.0       1.0000    Biso     1.000    
         C1292     C         0.6337    0.1578    0.7500    0.0       1.0000    Biso     1.000    
         C1293     C         0.5922    0.2500    0.6163    0.0       1.0000    Biso     1.000    
         C1294     C         0.5922    0.2500    0.8838    0.0       1.0000    Biso     1.000    
         C1295     C         0.9078    0.2500    0.8838    0.0       1.0000    Biso     1.000    
         C1296     C         0.9078    0.2500    0.6163    0.0       1.0000    Biso     1.000    
         C1297     C         0.8838    0.0000    0.8422    0.0       1.0000    Biso     1.000    
         C1298     C         0.6163    0.0000    0.8422    0.0       1.0000    Biso     1.000    
         C1299     C         0.6163    0.0000    0.6578    0.0       1.0000    Biso     1.000    
         C1300     C         0.8838    0.0000    0.6578    0.0       1.0000    Biso     1.000    
         C1301     C         0.8422    0.1337    0.7500    0.0       1.0000    Biso     1.000    
         C1302     C         0.8422    0.3663    0.7500    0.0       1.0000    Biso     1.000    
         C1303     C         0.6578    0.3663    0.7500    0.0       1.0000    Biso     1.000    
         C1304     C         0.6578    0.1337    0.7500    0.0       1.0000    Biso     1.000    
         C1305     C         0.7500    0.0922    0.8838    0.0       1.0000    Biso     1.000    
         C1306     C         0.7500    0.0922    0.6163    0.0       1.0000    Biso     1.000    
         C1307     C         0.7500    0.4078    0.6163    0.0       1.0000    Biso     1.000    
         C1308     C         0.7500    0.4078    0.8838    0.0       1.0000    Biso     1.000    
         C1309     C         0.7500    0.1337    0.6578    0.0       1.0000    Biso     1.000    
         C1310     C         0.7500    0.3663    0.6578    0.0       1.0000    Biso     1.000    
         C1311     C         0.7500    0.3663    0.8422    0.0       1.0000    Biso     1.000    
         C1312     C         0.7500    0.1337    0.8422    0.0       1.0000    Biso     1.000    
         C1313     C         0.8838    0.0922    0.7500    0.0       1.0000    Biso     1.000    
         C1314     C         0.6163    0.0922    0.7500    0.0       1.0000    Biso     1.000    
         C1315     C         0.6163    0.4078    0.7500    0.0       1.0000    Biso     1.000    
         C1316     C         0.8838    0.4078    0.7500    0.0       1.0000    Biso     1.000    
         C1317     C         0.8422    0.0000    0.6163    0.0       1.0000    Biso     1.000    
         C1318     C         0.8422    0.0000    0.8838    0.0       1.0000    Biso     1.000    
         C1319     C         0.6578    0.0000    0.8838    0.0       1.0000    Biso     1.000    
         C1320     C         0.6578    0.0000    0.6163    0.0       1.0000    Biso     1.000    
         C1321     C         0.8838    0.2500    0.5922    0.0       1.0000    Biso     1.000    
         C1322     C         0.6163    0.2500    0.5922    0.0       1.0000    Biso     1.000    
         C1323     C         0.6163    0.2500    0.9078    0.0       1.0000    Biso     1.000    
         C1324     C         0.8838    0.2500    0.9078    0.0       1.0000    Biso     1.000    
         C1325     C         0.8422    0.3838    0.5000    0.0       1.0000    Biso     1.000    
         C1326     C         0.8422    0.1163    0.5000    0.0       1.0000    Biso     1.000    
         C1327     C         0.6578    0.1163    0.5000    0.0       1.0000    Biso     1.000    
         C1328     C         0.6578    0.3838    0.5000    0.0       1.0000    Biso     1.000    
         C1329     C         0.7500    0.3422    0.6337    0.0       1.0000    Biso     1.000    
         C1330     C         0.7500    0.3422    0.8663    0.0       1.0000    Biso     1.000    
         C1331     C         0.7500    0.1578    0.8663    0.0       1.0000    Biso     1.000    
         C1332     C         0.7500    0.1578    0.6337    0.0       1.0000    Biso     1.000    
         C1333     C         0.7500    0.3838    0.9078    0.0       1.0000    Biso     1.000    
         C1334     C         0.7500    0.1163    0.9078    0.0       1.0000    Biso     1.000    
         C1335     C         0.7500    0.1163    0.5922    0.0       1.0000    Biso     1.000    
         C1336     C         0.7500    0.3838    0.5922    0.0       1.0000    Biso     1.000    
         C1337     C         0.8838    0.3422    0.5000    0.0       1.0000    Biso     1.000    
         C1338     C         0.6163    0.3422    0.5000    0.0       1.0000    Biso     1.000    
         C1339     C         0.6163    0.1578    0.5000    0.0       1.0000    Biso     1.000    
         C1340     C         0.8838    0.1578    0.5000    0.0       1.0000    Biso     1.000    
         C1341     C         0.8422    0.2500    0.8663    0.0       1.0000    Biso     1.000    
         C1342     C         0.8422    0.2500    0.6337    0.0       1.0000    Biso     1.000    
         C1343     C         0.6578    0.2500    0.6337    0.0       1.0000    Biso     1.000    
         C1344     C         0.6578    0.2500    0.8663    0.0       1.0000    Biso     1.000    
         H577      H         0.6395    0.0000    0.5679    0.0       1.0000    Biso     1.000    
         H578      H         0.8605    0.0000    0.5679    0.0       1.0000    Biso     1.000    
         H579      H         0.8605    0.0000    0.9321    0.0       1.0000    Biso     1.000    
         H580      H         0.6395    0.0000    0.9321    0.0       1.0000    Biso     1.000    
         H581      H         0.5679    0.1395    0.5000    0.0       1.0000    Biso     1.000    
         H582      H         0.5679    0.3605    0.5000    0.0       1.0000    Biso     1.000    
         H583      H         0.9321    0.3605    0.5000    0.0       1.0000    Biso     1.000    
         H584      H         0.9321    0.1395    0.5000    0.0       1.0000    Biso     1.000    
         H585      H         0.5000    0.0679    0.6395    0.0       1.0000    Biso     1.000    
         H586      H         0.5000    0.0679    0.8605    0.0       1.0000    Biso     1.000    
         H587      H         0.5000    0.4321    0.8605    0.0       1.0000    Biso     1.000    
         H588      H         0.5000    0.4321    0.6395    0.0       1.0000    Biso     1.000    
         H589      H         0.5000    0.1395    0.9321    0.0       1.0000    Biso     1.000    
         H590      H         0.5000    0.3605    0.9321    0.0       1.0000    Biso     1.000    
         H591      H         0.5000    0.3605    0.5679    0.0       1.0000    Biso     1.000    
         H592      H         0.5000    0.1395    0.5679    0.0       1.0000    Biso     1.000    
         H593      H         0.6395    0.0679    0.5000    0.0       1.0000    Biso     1.000    
         H594      H         0.8605    0.0679    0.5000    0.0       1.0000    Biso     1.000    
         H595      H         0.8605    0.4321    0.5000    0.0       1.0000    Biso     1.000    
         H596      H         0.6395    0.4321    0.5000    0.0       1.0000    Biso     1.000    
         H597      H         0.5679    0.0000    0.8605    0.0       1.0000    Biso     1.000    
         H598      H         0.5679    0.0000    0.6395    0.0       1.0000    Biso     1.000    
         H599      H         0.9321    0.0000    0.6395    0.0       1.0000    Biso     1.000    
         H600      H         0.9321    0.0000    0.8605    0.0       1.0000    Biso     1.000    
         H601      H         0.6395    0.2500    0.8179    0.0       1.0000    Biso     1.000    
         H602      H         0.8605    0.2500    0.8179    0.0       1.0000    Biso     1.000    
         H603      H         0.8605    0.2500    0.6821    0.0       1.0000    Biso     1.000    
         H604      H         0.6395    0.2500    0.6821    0.0       1.0000    Biso     1.000    
         H605      H         0.5679    0.3895    0.7500    0.0       1.0000    Biso     1.000    
         H606      H         0.5679    0.1105    0.7500    0.0       1.0000    Biso     1.000    
         H607      H         0.9321    0.1105    0.7500    0.0       1.0000    Biso     1.000    
         H608      H         0.9321    0.3895    0.7500    0.0       1.0000    Biso     1.000    
         H609      H         0.5000    0.3179    0.8895    0.0       1.0000    Biso     1.000    
         H610      H         0.5000    0.3179    0.6105    0.0       1.0000    Biso     1.000    
         H611      H         0.5000    0.1821    0.6105    0.0       1.0000    Biso     1.000    
         H612      H         0.5000    0.1821    0.8895    0.0       1.0000    Biso     1.000    
         H613      H         0.5000    0.3895    0.6821    0.0       1.0000    Biso     1.000    
         H614      H         0.5000    0.1105    0.6821    0.0       1.0000    Biso     1.000    
         H615      H         0.5000    0.1105    0.8179    0.0       1.0000    Biso     1.000    
         H616      H         0.5000    0.3895    0.8179    0.0       1.0000    Biso     1.000    
         H617      H         0.6395    0.3179    0.7500    0.0       1.0000    Biso     1.000    
         H618      H         0.8605    0.3179    0.7500    0.0       1.0000    Biso     1.000    
         H619      H         0.8605    0.1821    0.7500    0.0       1.0000    Biso     1.000    
         H620      H         0.6395    0.1821    0.7500    0.0       1.0000    Biso     1.000    
         H621      H         0.5679    0.2500    0.6105    0.0       1.0000    Biso     1.000    
         H622      H         0.5679    0.2500    0.8895    0.0       1.0000    Biso     1.000    
         H623      H         0.9321    0.2500    0.8895    0.0       1.0000    Biso     1.000    
         H624      H         0.9321    0.2500    0.6105    0.0       1.0000    Biso     1.000    
         H625      H         0.8895    0.0000    0.8179    0.0       1.0000    Biso     1.000    
         H626      H         0.6105    0.0000    0.8179    0.0       1.0000    Biso     1.000    
         H627      H         0.6105    0.0000    0.6821    0.0       1.0000    Biso     1.000    
         H628      H         0.8895    0.0000    0.6821    0.0       1.0000    Biso     1.000    
         H629      H         0.8179    0.1395    0.7500    0.0       1.0000    Biso     1.000    
         H630      H         0.8179    0.3605    0.7500    0.0       1.0000    Biso     1.000    
         H631      H         0.6821    0.3605    0.7500    0.0       1.0000    Biso     1.000    
         H632      H         0.6821    0.1395    0.7500    0.0       1.0000    Biso     1.000    
         H633      H         0.7500    0.0679    0.8895    0.0       1.0000    Biso     1.000    
         H634      H         0.7500    0.0679    0.6105    0.0       1.0000    Biso     1.000    
         H635      H         0.7500    0.4321    0.6105    0.0       1.0000    Biso     1.000    
         H636      H         0.7500    0.4321    0.8895    0.0       1.0000    Biso     1.000    
         H637      H         0.7500    0.1395    0.6821    0.0       1.0000    Biso     1.000    
         H638      H         0.7500    0.3605    0.6821    0.0       1.0000    Biso     1.000    
         H639      H         0.7500    0.3605    0.8179    0.0       1.0000    Biso     1.000    
         H640      H         0.7500    0.1395    0.8179    0.0       1.0000    Biso     1.000    
         H641      H         0.8895    0.0679    0.7500    0.0       1.0000    Biso     1.000    
         H642      H         0.6105    0.0679    0.7500    0.0       1.0000    Biso     1.000    
         H643      H         0.6105    0.4321    0.7500    0.0       1.0000    Biso     1.000    
         H644      H         0.8895    0.4321    0.7500    0.0       1.0000    Biso     1.000    
         H645      H         0.8179    0.0000    0.6105    0.0       1.0000    Biso     1.000    
         H646      H         0.8179    0.0000    0.8895    0.0       1.0000    Biso     1.000    
         H647      H         0.6821    0.0000    0.8895    0.0       1.0000    Biso     1.000    
         H648      H         0.6821    0.0000    0.6105    0.0       1.0000    Biso     1.000    
         H649      H         0.8895    0.2500    0.5679    0.0       1.0000    Biso     1.000    
         H650      H         0.6105    0.2500    0.5679    0.0       1.0000    Biso     1.000    
         H651      H         0.6105    0.2500    0.9321    0.0       1.0000    Biso     1.000    
         H652      H         0.8895    0.2500    0.9321    0.0       1.0000    Biso     1.000    
         H653      H         0.8179    0.3895    0.5000    0.0       1.0000    Biso     1.000    
         H654      H         0.8179    0.1105    0.5000    0.0       1.0000    Biso     1.000    
         H655      H         0.6821    0.1105    0.5000    0.0       1.0000    Biso     1.000    
         H656      H         0.6821    0.3895    0.5000    0.0       1.0000    Biso     1.000    
         H657      H         0.7500    0.3179    0.6395    0.0       1.0000    Biso     1.000    
         H658      H         0.7500    0.3179    0.8605    0.0       1.0000    Biso     1.000    
         H659      H         0.7500    0.1821    0.8605    0.0       1.0000    Biso     1.000    
         H660      H         0.7500    0.1821    0.6395    0.0       1.0000    Biso     1.000    
         H661      H         0.7500    0.3895    0.9321    0.0       1.0000    Biso     1.000    
         H662      H         0.7500    0.1105    0.9321    0.0       1.0000    Biso     1.000    
         H663      H         0.7500    0.1105    0.5679    0.0       1.0000    Biso     1.000    
         H664      H         0.7500    0.3895    0.5679    0.0       1.0000    Biso     1.000    
         H665      H         0.8895    0.3179    0.5000    0.0       1.0000    Biso     1.000    
         H666      H         0.6105    0.3179    0.5000    0.0       1.0000    Biso     1.000    
         H667      H         0.6105    0.1821    0.5000    0.0       1.0000    Biso     1.000    
         H668      H         0.8895    0.1821    0.5000    0.0       1.0000    Biso     1.000    
         H669      H         0.8179    0.2500    0.8605    0.0       1.0000    Biso     1.000    
         H670      H         0.8179    0.2500    0.6395    0.0       1.0000    Biso     1.000    
         H671      H         0.6821    0.2500    0.6395    0.0       1.0000    Biso     1.000    
         H672      H         0.6821    0.2500    0.8605    0.0       1.0000    Biso     1.000    
         Zr89      Zr        0.5599    0.5000    0.5000    0.0       .         .        .        
         Zr90      Zr        0.5599    0.7500    0.7500    0.0       .         .        .        
         Zr91      Zr        0.9401    0.7500    0.7500    0.0       .         .        .        
         Zr92      Zr        0.5000    0.7500    0.6900    0.0       .         .        .        
         Zr93      Zr        0.8099    0.5000    0.7500    0.0       .         .        .        
         Zr94      Zr        0.6900    0.5000    0.7500    0.0       .         .        .        
         Zr95      Zr        0.8099    0.7500    0.5000    0.0       .         .        .        
         Zr96      Zr        0.7500    0.6900    0.5000    0.0       .         .        .        
         O897      O         0.5852    0.5000    0.5477    0.0       1.0000    Biso     1.000    
         O898      O         0.9148    0.5000    0.5477    0.0       1.0000    Biso     1.000    
         O899      O         0.9148    0.5000    0.9524    0.0       1.0000    Biso     1.000    
         O900      O         0.5852    0.5000    0.9524    0.0       1.0000    Biso     1.000    
         O901      O         0.5477    0.5852    0.5000    0.0       1.0000    Biso     1.000    
         O902      O         0.5477    0.9148    0.5000    0.0       1.0000    Biso     1.000    
         O903      O         0.9524    0.9148    0.5000    0.0       1.0000    Biso     1.000    
         O904      O         0.9524    0.5852    0.5000    0.0       1.0000    Biso     1.000    
         O905      O         0.5000    0.5477    0.5852    0.0       1.0000    Biso     1.000    
         O906      O         0.5000    0.5477    0.9148    0.0       1.0000    Biso     1.000    
         O907      O         0.5000    0.9524    0.9148    0.0       1.0000    Biso     1.000    
         O908      O         0.5000    0.9524    0.5852    0.0       1.0000    Biso     1.000    
         O909      O         0.5000    0.5852    0.9524    0.0       1.0000    Biso     1.000    
         O910      O         0.5000    0.9148    0.9524    0.0       1.0000    Biso     1.000    
         O911      O         0.5000    0.9148    0.5477    0.0       1.0000    Biso     1.000    
         O912      O         0.5000    0.5852    0.5477    0.0       1.0000    Biso     1.000    
         O913      O         0.5852    0.5477    0.5000    0.0       1.0000    Biso     1.000    
         O914      O         0.9148    0.5477    0.5000    0.0       1.0000    Biso     1.000    
         O915      O         0.9148    0.9524    0.5000    0.0       1.0000    Biso     1.000    
         O916      O         0.5852    0.9524    0.5000    0.0       1.0000    Biso     1.000    
         O917      O         0.5477    0.5000    0.9148    0.0       1.0000    Biso     1.000    
         O918      O         0.5477    0.5000    0.5852    0.0       1.0000    Biso     1.000    
         O919      O         0.9524    0.5000    0.5852    0.0       1.0000    Biso     1.000    
         O920      O         0.9524    0.5000    0.9148    0.0       1.0000    Biso     1.000    
         O921      O         0.5852    0.7500    0.7977    0.0       1.0000    Biso     1.000    
         O922      O         0.9148    0.7500    0.7977    0.0       1.0000    Biso     1.000    
         O923      O         0.9148    0.7500    0.7023    0.0       1.0000    Biso     1.000    
         O924      O         0.5852    0.7500    0.7023    0.0       1.0000    Biso     1.000    
         O925      O         0.5477    0.8352    0.7500    0.0       1.0000    Biso     1.000    
         O926      O         0.5477    0.6648    0.7500    0.0       1.0000    Biso     1.000    
         O927      O         0.9524    0.6648    0.7500    0.0       1.0000    Biso     1.000    
         O928      O         0.9524    0.8352    0.7500    0.0       1.0000    Biso     1.000    
         O929      O         0.5000    0.7977    0.8352    0.0       1.0000    Biso     1.000    
         O930      O         0.5000    0.7977    0.6648    0.0       1.0000    Biso     1.000    
         O931      O         0.5000    0.7023    0.6648    0.0       1.0000    Biso     1.000    
         O932      O         0.5000    0.7023    0.8352    0.0       1.0000    Biso     1.000    
         O933      O         0.5000    0.8352    0.7023    0.0       1.0000    Biso     1.000    
         O934      O         0.5000    0.6648    0.7023    0.0       1.0000    Biso     1.000    
         O935      O         0.5000    0.6648    0.7977    0.0       1.0000    Biso     1.000    
         O936      O         0.5000    0.8352    0.7977    0.0       1.0000    Biso     1.000    
         O937      O         0.5852    0.7977    0.7500    0.0       1.0000    Biso     1.000    
         O938      O         0.9148    0.7977    0.7500    0.0       1.0000    Biso     1.000    
         O939      O         0.9148    0.7023    0.7500    0.0       1.0000    Biso     1.000    
         O940      O         0.5852    0.7023    0.7500    0.0       1.0000    Biso     1.000    
         O941      O         0.5477    0.7500    0.6648    0.0       1.0000    Biso     1.000    
         O942      O         0.5477    0.7500    0.8352    0.0       1.0000    Biso     1.000    
         O943      O         0.9524    0.7500    0.8352    0.0       1.0000    Biso     1.000    
         O944      O         0.9524    0.7500    0.6648    0.0       1.0000    Biso     1.000    
         O945      O         0.8352    0.5000    0.7977    0.0       1.0000    Biso     1.000    
         O946      O         0.6648    0.5000    0.7977    0.0       1.0000    Biso     1.000    
         O947      O         0.6648    0.5000    0.7023    0.0       1.0000    Biso     1.000    
         O948      O         0.8352    0.5000    0.7023    0.0       1.0000    Biso     1.000    
         O949      O         0.7977    0.5852    0.7500    0.0       1.0000    Biso     1.000    
         O950      O         0.7977    0.9148    0.7500    0.0       1.0000    Biso     1.000    
         O951      O         0.7023    0.9148    0.7500    0.0       1.0000    Biso     1.000    
         O952      O         0.7023    0.5852    0.7500    0.0       1.0000    Biso     1.000    
         O953      O         0.7500    0.5477    0.8352    0.0       1.0000    Biso     1.000    
         O954      O         0.7500    0.5477    0.6648    0.0       1.0000    Biso     1.000    
         O955      O         0.7500    0.9524    0.6648    0.0       1.0000    Biso     1.000    
         O956      O         0.7500    0.9524    0.8352    0.0       1.0000    Biso     1.000    
         O957      O         0.7500    0.5852    0.7023    0.0       1.0000    Biso     1.000    
         O958      O         0.7500    0.9148    0.7023    0.0       1.0000    Biso     1.000    
         O959      O         0.7500    0.9148    0.7977    0.0       1.0000    Biso     1.000    
         O960      O         0.7500    0.5852    0.7977    0.0       1.0000    Biso     1.000    
         O961      O         0.8352    0.5477    0.7500    0.0       1.0000    Biso     1.000    
         O962      O         0.6648    0.5477    0.7500    0.0       1.0000    Biso     1.000    
         O963      O         0.6648    0.9524    0.7500    0.0       1.0000    Biso     1.000    
         O964      O         0.8352    0.9524    0.7500    0.0       1.0000    Biso     1.000    
         O965      O         0.7977    0.5000    0.6648    0.0       1.0000    Biso     1.000    
         O966      O         0.7977    0.5000    0.8352    0.0       1.0000    Biso     1.000    
         O967      O         0.7023    0.5000    0.8352    0.0       1.0000    Biso     1.000    
         O968      O         0.7023    0.5000    0.6648    0.0       1.0000    Biso     1.000    
         O969      O         0.8352    0.7500    0.5477    0.0       1.0000    Biso     1.000    
         O970      O         0.6648    0.7500    0.5477    0.0       1.0000    Biso     1.000    
         O971      O         0.6648    0.7500    0.9524    0.0       1.0000    Biso     1.000    
         O972      O         0.8352    0.7500    0.9524    0.0       1.0000    Biso     1.000    
         O973      O         0.7977    0.8352    0.5000    0.0       1.0000    Biso     1.000    
         O974      O         0.7977    0.6648    0.5000    0.0       1.0000    Biso     1.000    
         O975      O         0.7023    0.6648    0.5000    0.0       1.0000    Biso     1.000    
         O976      O         0.7023    0.8352    0.5000    0.0       1.0000    Biso     1.000    
         O977      O         0.7500    0.7977    0.5852    0.0       1.0000    Biso     1.000    
         O978      O         0.7500    0.7977    0.9148    0.0       1.0000    Biso     1.000    
         O979      O         0.7500    0.7023    0.9148    0.0       1.0000    Biso     1.000    
         O980      O         0.7500    0.7023    0.5852    0.0       1.0000    Biso     1.000    
         O981      O         0.7500    0.8352    0.9524    0.0       1.0000    Biso     1.000    
         O982      O         0.7500    0.6648    0.9524    0.0       1.0000    Biso     1.000    
         O983      O         0.7500    0.6648    0.5477    0.0       1.0000    Biso     1.000    
         O984      O         0.7500    0.8352    0.5477    0.0       1.0000    Biso     1.000    
         O985      O         0.8352    0.7977    0.5000    0.0       1.0000    Biso     1.000    
         O986      O         0.6648    0.7977    0.5000    0.0       1.0000    Biso     1.000    
         O987      O         0.6648    0.7023    0.5000    0.0       1.0000    Biso     1.000    
         O988      O         0.8352    0.7023    0.5000    0.0       1.0000    Biso     1.000    
         O989      O         0.7977    0.7500    0.9148    0.0       1.0000    Biso     1.000    
         O990      O         0.7977    0.7500    0.5852    0.0       1.0000    Biso     1.000    
         O991      O         0.7023    0.7500    0.5852    0.0       1.0000    Biso     1.000    
         O992      O         0.7023    0.7500    0.9148    0.0       1.0000    Biso     1.000    
         O993      O         0.5280    0.9720    0.9720    0.0       .         .        .        
         O994      O         0.9720    0.5280    0.9720    0.0       .         .        .        
         O995      O         0.9720    0.9720    0.5280    0.0       .         .        .        
         O996      O         0.5280    0.5280    0.5280    0.0       .         .        .        
         O997      O         0.9720    0.5280    0.5280    0.0       .         .        .        
         O998      O         0.5280    0.9720    0.5280    0.0       .         .        .        
         O999      O         0.9720    0.9720    0.9720    0.0       .         .        .        
         O1000     O         0.5280    0.5280    0.9720    0.0       .         .        .        
         O1001     O         0.5280    0.7220    0.7220    0.0       .         .        .        
         O1002     O         0.9720    0.7780    0.7220    0.0       .         .        .        
         O1003     O         0.9720    0.7220    0.7780    0.0       .         .        .        
         O1004     O         0.5280    0.7780    0.7780    0.0       .         .        .        
         O1005     O         0.9720    0.7780    0.7780    0.0       .         .        .        
         O1006     O         0.5280    0.7220    0.7780    0.0       .         .        .        
         O1007     O         0.9720    0.7220    0.7220    0.0       .         .        .        
         O1008     O         0.5280    0.7780    0.7220    0.0       .         .        .        
         O1009     O         0.7780    0.9720    0.7220    0.0       .         .        .        
         O1010     O         0.7220    0.5280    0.7220    0.0       .         .        .        
         O1011     O         0.7220    0.9720    0.7780    0.0       .         .        .        
         O1012     O         0.7780    0.5280    0.7780    0.0       .         .        .        
         O1013     O         0.7220    0.5280    0.7780    0.0       .         .        .        
         O1014     O         0.7780    0.9720    0.7780    0.0       .         .        .        
         O1015     O         0.7220    0.9720    0.7220    0.0       .         .        .        
         O1016     O         0.7780    0.5280    0.7220    0.0       .         .        .        
         O1017     O         0.7780    0.7220    0.9720    0.0       .         .        .        
         O1018     O         0.7220    0.7780    0.9720    0.0       .         .        .        
         O1019     O         0.7220    0.7220    0.5280    0.0       .         .        .        
         O1020     O         0.7780    0.7780    0.5280    0.0       .         .        .        
         O1021     O         0.7220    0.7780    0.5280    0.0       .         .        .        
         O1022     O         0.7780    0.7220    0.5280    0.0       .         .        .        
         O1023     O         0.7220    0.7220    0.9720    0.0       .         .        .        
         O1024     O         0.7780    0.7780    0.9720    0.0       .         .        .        
         C1345     C         0.5768    0.5000    0.9232    0.0       1.0000    Biso     1.000    
         C1346     C         0.9232    0.5000    0.9232    0.0       1.0000    Biso     1.000    
         C1347     C         0.9232    0.5000    0.5768    0.0       1.0000    Biso     1.000    
         C1348     C         0.5768    0.5000    0.5768    0.0       1.0000    Biso     1.000    
         C1349     C         0.9232    0.5768    0.5000    0.0       1.0000    Biso     1.000    
         C1350     C         0.9232    0.9232    0.5000    0.0       1.0000    Biso     1.000    
         C1351     C         0.5768    0.9232    0.5000    0.0       1.0000    Biso     1.000    
         C1352     C         0.5768    0.5768    0.5000    0.0       1.0000    Biso     1.000    
         C1353     C         0.5000    0.9232    0.5768    0.0       1.0000    Biso     1.000    
         C1354     C         0.5000    0.9232    0.9232    0.0       1.0000    Biso     1.000    
         C1355     C         0.5000    0.5768    0.9232    0.0       1.0000    Biso     1.000    
         C1356     C         0.5000    0.5768    0.5768    0.0       1.0000    Biso     1.000    
         C1357     C         0.5768    0.7500    0.6732    0.0       1.0000    Biso     1.000    
         C1358     C         0.9232    0.7500    0.6732    0.0       1.0000    Biso     1.000    
         C1359     C         0.9232    0.7500    0.8268    0.0       1.0000    Biso     1.000    
         C1360     C         0.5768    0.7500    0.8268    0.0       1.0000    Biso     1.000    
         C1361     C         0.9232    0.8268    0.7500    0.0       1.0000    Biso     1.000    
         C1362     C         0.9232    0.6732    0.7500    0.0       1.0000    Biso     1.000    
         C1363     C         0.5768    0.6732    0.7500    0.0       1.0000    Biso     1.000    
         C1364     C         0.5768    0.8268    0.7500    0.0       1.0000    Biso     1.000    
         C1365     C         0.5000    0.6732    0.8268    0.0       1.0000    Biso     1.000    
         C1366     C         0.5000    0.6732    0.6732    0.0       1.0000    Biso     1.000    
         C1367     C         0.5000    0.8268    0.6732    0.0       1.0000    Biso     1.000    
         C1368     C         0.5000    0.8268    0.8268    0.0       1.0000    Biso     1.000    
         C1369     C         0.8268    0.5000    0.6732    0.0       1.0000    Biso     1.000    
         C1370     C         0.6732    0.5000    0.6732    0.0       1.0000    Biso     1.000    
         C1371     C         0.6732    0.5000    0.8268    0.0       1.0000    Biso     1.000    
         C1372     C         0.8268    0.5000    0.8268    0.0       1.0000    Biso     1.000    
         C1373     C         0.6732    0.5768    0.7500    0.0       1.0000    Biso     1.000    
         C1374     C         0.6732    0.9232    0.7500    0.0       1.0000    Biso     1.000    
         C1375     C         0.8268    0.9232    0.7500    0.0       1.0000    Biso     1.000    
         C1376     C         0.8268    0.5768    0.7500    0.0       1.0000    Biso     1.000    
         C1377     C         0.7500    0.9232    0.8268    0.0       1.0000    Biso     1.000    
         C1378     C         0.7500    0.9232    0.6732    0.0       1.0000    Biso     1.000    
         C1379     C         0.7500    0.5768    0.6732    0.0       1.0000    Biso     1.000    
         C1380     C         0.7500    0.5768    0.8268    0.0       1.0000    Biso     1.000    
         C1381     C         0.8268    0.7500    0.9232    0.0       1.0000    Biso     1.000    
         C1382     C         0.6732    0.7500    0.9232    0.0       1.0000    Biso     1.000    
         C1383     C         0.6732    0.7500    0.5768    0.0       1.0000    Biso     1.000    
         C1384     C         0.8268    0.7500    0.5768    0.0       1.0000    Biso     1.000    
         C1385     C         0.6732    0.8268    0.5000    0.0       1.0000    Biso     1.000    
         C1386     C         0.6732    0.6732    0.5000    0.0       1.0000    Biso     1.000    
         C1387     C         0.8268    0.6732    0.5000    0.0       1.0000    Biso     1.000    
         C1388     C         0.8268    0.8268    0.5000    0.0       1.0000    Biso     1.000    
         C1389     C         0.7500    0.6732    0.5768    0.0       1.0000    Biso     1.000    
         C1390     C         0.7500    0.6732    0.9232    0.0       1.0000    Biso     1.000    
         C1391     C         0.7500    0.8268    0.9232    0.0       1.0000    Biso     1.000    
         C1392     C         0.7500    0.8268    0.5768    0.0       1.0000    Biso     1.000    
         C1393     C         0.6025    0.5000    0.6025    0.0       1.0000    Biso     1.000    
         C1394     C         0.8975    0.5000    0.6025    0.0       1.0000    Biso     1.000    
         C1395     C         0.8975    0.5000    0.8975    0.0       1.0000    Biso     1.000    
         C1396     C         0.6025    0.5000    0.8975    0.0       1.0000    Biso     1.000    
         C1397     C         0.6025    0.6025    0.5000    0.0       1.0000    Biso     1.000    
         C1398     C         0.6025    0.8975    0.5000    0.0       1.0000    Biso     1.000    
         C1399     C         0.8975    0.8975    0.5000    0.0       1.0000    Biso     1.000    
         C1400     C         0.8975    0.6025    0.5000    0.0       1.0000    Biso     1.000    
         C1401     C         0.5000    0.6025    0.6025    0.0       1.0000    Biso     1.000    
         C1402     C         0.5000    0.6025    0.8975    0.0       1.0000    Biso     1.000    
         C1403     C         0.5000    0.8975    0.8975    0.0       1.0000    Biso     1.000    
         C1404     C         0.5000    0.8975    0.6025    0.0       1.0000    Biso     1.000    
         C1405     C         0.6025    0.7500    0.8525    0.0       1.0000    Biso     1.000    
         C1406     C         0.8975    0.7500    0.8525    0.0       1.0000    Biso     1.000    
         C1407     C         0.8975    0.7500    0.6475    0.0       1.0000    Biso     1.000    
         C1408     C         0.6025    0.7500    0.6475    0.0       1.0000    Biso     1.000    
         C1409     C         0.6025    0.8525    0.7500    0.0       1.0000    Biso     1.000    
         C1410     C         0.6025    0.6475    0.7500    0.0       1.0000    Biso     1.000    
         C1411     C         0.8975    0.6475    0.7500    0.0       1.0000    Biso     1.000    
         C1412     C         0.8975    0.8525    0.7500    0.0       1.0000    Biso     1.000    
         C1413     C         0.5000    0.8525    0.8525    0.0       1.0000    Biso     1.000    
         C1414     C         0.5000    0.8525    0.6475    0.0       1.0000    Biso     1.000    
         C1415     C         0.5000    0.6475    0.6475    0.0       1.0000    Biso     1.000    
         C1416     C         0.5000    0.6475    0.8525    0.0       1.0000    Biso     1.000    
         C1417     C         0.8525    0.5000    0.8525    0.0       1.0000    Biso     1.000    
         C1418     C         0.6475    0.5000    0.8525    0.0       1.0000    Biso     1.000    
         C1419     C         0.6475    0.5000    0.6475    0.0       1.0000    Biso     1.000    
         C1420     C         0.8525    0.5000    0.6475    0.0       1.0000    Biso     1.000    
         C1421     C         0.8525    0.6025    0.7500    0.0       1.0000    Biso     1.000    
         C1422     C         0.8525    0.8975    0.7500    0.0       1.0000    Biso     1.000    
         C1423     C         0.6475    0.8975    0.7500    0.0       1.0000    Biso     1.000    
         C1424     C         0.6475    0.6025    0.7500    0.0       1.0000    Biso     1.000    
         C1425     C         0.7500    0.6025    0.8525    0.0       1.0000    Biso     1.000    
         C1426     C         0.7500    0.6025    0.6475    0.0       1.0000    Biso     1.000    
         C1427     C         0.7500    0.8975    0.6475    0.0       1.0000    Biso     1.000    
         C1428     C         0.7500    0.8975    0.8525    0.0       1.0000    Biso     1.000    
         C1429     C         0.8525    0.7500    0.6025    0.0       1.0000    Biso     1.000    
         C1430     C         0.6475    0.7500    0.6025    0.0       1.0000    Biso     1.000    
         C1431     C         0.6475    0.7500    0.8975    0.0       1.0000    Biso     1.000    
         C1432     C         0.8525    0.7500    0.8975    0.0       1.0000    Biso     1.000    
         C1433     C         0.8525    0.8525    0.5000    0.0       1.0000    Biso     1.000    
         C1434     C         0.8525    0.6475    0.5000    0.0       1.0000    Biso     1.000    
         C1435     C         0.6475    0.6475    0.5000    0.0       1.0000    Biso     1.000    
         C1436     C         0.6475    0.8525    0.5000    0.0       1.0000    Biso     1.000    
         C1437     C         0.7500    0.8525    0.6025    0.0       1.0000    Biso     1.000    
         C1438     C         0.7500    0.8525    0.8975    0.0       1.0000    Biso     1.000    
         C1439     C         0.7500    0.6475    0.8975    0.0       1.0000    Biso     1.000    
         C1440     C         0.7500    0.6475    0.6025    0.0       1.0000    Biso     1.000    
         C1441     C         0.6337    0.5000    0.5922    0.0       1.0000    Biso     1.000    
         C1442     C         0.8663    0.5000    0.5922    0.0       1.0000    Biso     1.000    
         C1443     C         0.8663    0.5000    0.9078    0.0       1.0000    Biso     1.000    
         C1444     C         0.6337    0.5000    0.9078    0.0       1.0000    Biso     1.000    
         C1445     C         0.5922    0.6337    0.5000    0.0       1.0000    Biso     1.000    
         C1446     C         0.5922    0.8663    0.5000    0.0       1.0000    Biso     1.000    
         C1447     C         0.9078    0.8663    0.5000    0.0       1.0000    Biso     1.000    
         C1448     C         0.9078    0.6337    0.5000    0.0       1.0000    Biso     1.000    
         C1449     C         0.5000    0.5922    0.6337    0.0       1.0000    Biso     1.000    
         C1450     C         0.5000    0.5922    0.8663    0.0       1.0000    Biso     1.000    
         C1451     C         0.5000    0.9078    0.8663    0.0       1.0000    Biso     1.000    
         C1452     C         0.5000    0.9078    0.6337    0.0       1.0000    Biso     1.000    
         C1453     C         0.5000    0.6337    0.9078    0.0       1.0000    Biso     1.000    
         C1454     C         0.5000    0.8663    0.9078    0.0       1.0000    Biso     1.000    
         C1455     C         0.5000    0.8663    0.5922    0.0       1.0000    Biso     1.000    
         C1456     C         0.5000    0.6337    0.5922    0.0       1.0000    Biso     1.000    
         C1457     C         0.6337    0.5922    0.5000    0.0       1.0000    Biso     1.000    
         C1458     C         0.8663    0.5922    0.5000    0.0       1.0000    Biso     1.000    
         C1459     C         0.8663    0.9078    0.5000    0.0       1.0000    Biso     1.000    
         C1460     C         0.6337    0.9078    0.5000    0.0       1.0000    Biso     1.000    
         C1461     C         0.5922    0.5000    0.8663    0.0       1.0000    Biso     1.000    
         C1462     C         0.5922    0.5000    0.6337    0.0       1.0000    Biso     1.000    
         C1463     C         0.9078    0.5000    0.6337    0.0       1.0000    Biso     1.000    
         C1464     C         0.9078    0.5000    0.8663    0.0       1.0000    Biso     1.000    
         C1465     C         0.6337    0.7500    0.8422    0.0       1.0000    Biso     1.000    
         C1466     C         0.8663    0.7500    0.8422    0.0       1.0000    Biso     1.000    
         C1467     C         0.8663    0.7500    0.6578    0.0       1.0000    Biso     1.000    
         C1468     C         0.6337    0.7500    0.6578    0.0       1.0000    Biso     1.000    
         C1469     C         0.5922    0.8838    0.7500    0.0       1.0000    Biso     1.000    
         C1470     C         0.5922    0.6163    0.7500    0.0       1.0000    Biso     1.000    
         C1471     C         0.9078    0.6163    0.7500    0.0       1.0000    Biso     1.000    
         C1472     C         0.9078    0.8838    0.7500    0.0       1.0000    Biso     1.000    
         C1473     C         0.5000    0.8422    0.8838    0.0       1.0000    Biso     1.000    
         C1474     C         0.5000    0.8422    0.6163    0.0       1.0000    Biso     1.000    
         C1475     C         0.5000    0.6578    0.6163    0.0       1.0000    Biso     1.000    
         C1476     C         0.5000    0.6578    0.8838    0.0       1.0000    Biso     1.000    
         C1477     C         0.5000    0.8838    0.6578    0.0       1.0000    Biso     1.000    
         C1478     C         0.5000    0.6163    0.6578    0.0       1.0000    Biso     1.000    
         C1479     C         0.5000    0.6163    0.8422    0.0       1.0000    Biso     1.000    
         C1480     C         0.5000    0.8838    0.8422    0.0       1.0000    Biso     1.000    
         C1481     C         0.6337    0.8422    0.7500    0.0       1.0000    Biso     1.000    
         C1482     C         0.8663    0.8422    0.7500    0.0       1.0000    Biso     1.000    
         C1483     C         0.8663    0.6578    0.7500    0.0       1.0000    Biso     1.000    
         C1484     C         0.6337    0.6578    0.7500    0.0       1.0000    Biso     1.000    
         C1485     C         0.5922    0.7500    0.6163    0.0       1.0000    Biso     1.000    
         C1486     C         0.5922    0.7500    0.8838    0.0       1.0000    Biso     1.000    
         C1487     C         0.9078    0.7500    0.8838    0.0       1.0000    Biso     1.000    
         C1488     C         0.9078    0.7500    0.6163    0.0       1.0000    Biso     1.000    
         C1489     C         0.8838    0.5000    0.8422    0.0       1.0000    Biso     1.000    
         C1490     C         0.6163    0.5000    0.8422    0.0       1.0000    Biso     1.000    
         C1491     C         0.6163    0.5000    0.6578    0.0       1.0000    Biso     1.000    
         C1492     C         0.8838    0.5000    0.6578    0.0       1.0000    Biso     1.000    
         C1493     C         0.8422    0.6337    0.7500    0.0       1.0000    Biso     1.000    
         C1494     C         0.8422    0.8663    0.7500    0.0       1.0000    Biso     1.000    
         C1495     C         0.6578    0.8663    0.7500    0.0       1.0000    Biso     1.000    
         C1496     C         0.6578    0.6337    0.7500    0.0       1.0000    Biso     1.000    
         C1497     C         0.7500    0.5922    0.8838    0.0       1.0000    Biso     1.000    
         C1498     C         0.7500    0.5922    0.6163    0.0       1.0000    Biso     1.000    
         C1499     C         0.7500    0.9078    0.6163    0.0       1.0000    Biso     1.000    
         C1500     C         0.7500    0.9078    0.8838    0.0       1.0000    Biso     1.000    
         C1501     C         0.7500    0.6337    0.6578    0.0       1.0000    Biso     1.000    
         C1502     C         0.7500    0.8663    0.6578    0.0       1.0000    Biso     1.000    
         C1503     C         0.7500    0.8663    0.8422    0.0       1.0000    Biso     1.000    
         C1504     C         0.7500    0.6337    0.8422    0.0       1.0000    Biso     1.000    
         C1505     C         0.8838    0.5922    0.7500    0.0       1.0000    Biso     1.000    
         C1506     C         0.6163    0.5922    0.7500    0.0       1.0000    Biso     1.000    
         C1507     C         0.6163    0.9078    0.7500    0.0       1.0000    Biso     1.000    
         C1508     C         0.8838    0.9078    0.7500    0.0       1.0000    Biso     1.000    
         C1509     C         0.8422    0.5000    0.6163    0.0       1.0000    Biso     1.000    
         C1510     C         0.8422    0.5000    0.8838    0.0       1.0000    Biso     1.000    
         C1511     C         0.6578    0.5000    0.8838    0.0       1.0000    Biso     1.000    
         C1512     C         0.6578    0.5000    0.6163    0.0       1.0000    Biso     1.000    
         C1513     C         0.8838    0.7500    0.5922    0.0       1.0000    Biso     1.000    
         C1514     C         0.6163    0.7500    0.5922    0.0       1.0000    Biso     1.000    
         C1515     C         0.6163    0.7500    0.9078    0.0       1.0000    Biso     1.000    
         C1516     C         0.8838    0.7500    0.9078    0.0       1.0000    Biso     1.000    
         C1517     C         0.8422    0.8838    0.5000    0.0       1.0000    Biso     1.000    
         C1518     C         0.8422    0.6163    0.5000    0.0       1.0000    Biso     1.000    
         C1519     C         0.6578    0.6163    0.5000    0.0       1.0000    Biso     1.000    
         C1520     C         0.6578    0.8838    0.5000    0.0       1.0000    Biso     1.000    
         C1521     C         0.7500    0.8422    0.6337    0.0       1.0000    Biso     1.000    
         C1522     C         0.7500    0.8422    0.8663    0.0       1.0000    Biso     1.000    
         C1523     C         0.7500    0.6578    0.8663    0.0       1.0000    Biso     1.000    
         C1524     C         0.7500    0.6578    0.6337    0.0       1.0000    Biso     1.000    
         C1525     C         0.7500    0.8838    0.9078    0.0       1.0000    Biso     1.000    
         C1526     C         0.7500    0.6163    0.9078    0.0       1.0000    Biso     1.000    
         C1527     C         0.7500    0.6163    0.5922    0.0       1.0000    Biso     1.000    
         C1528     C         0.7500    0.8838    0.5922    0.0       1.0000    Biso     1.000    
         C1529     C         0.8838    0.8422    0.5000    0.0       1.0000    Biso     1.000    
         C1530     C         0.6163    0.8422    0.5000    0.0       1.0000    Biso     1.000    
         C1531     C         0.6163    0.6578    0.5000    0.0       1.0000    Biso     1.000    
         C1532     C         0.8838    0.6578    0.5000    0.0       1.0000    Biso     1.000    
         C1533     C         0.8422    0.7500    0.8663    0.0       1.0000    Biso     1.000    
         C1534     C         0.8422    0.7500    0.6337    0.0       1.0000    Biso     1.000    
         C1535     C         0.6578    0.7500    0.6337    0.0       1.0000    Biso     1.000    
         C1536     C         0.6578    0.7500    0.8663    0.0       1.0000    Biso     1.000    
         H673      H         0.6395    0.5000    0.5679    0.0       1.0000    Biso     1.000    
         H674      H         0.8605    0.5000    0.5679    0.0       1.0000    Biso     1.000    
         H675      H         0.8605    0.5000    0.9321    0.0       1.0000    Biso     1.000    
         H676      H         0.6395    0.5000    0.9321    0.0       1.0000    Biso     1.000    
         H677      H         0.5679    0.6395    0.5000    0.0       1.0000    Biso     1.000    
         H678      H         0.5679    0.8605    0.5000    0.0       1.0000    Biso     1.000    
         H679      H         0.9321    0.8605    0.5000    0.0       1.0000    Biso     1.000    
         H680      H         0.9321    0.6395    0.5000    0.0       1.0000    Biso     1.000    
         H681      H         0.5000    0.5679    0.6395    0.0       1.0000    Biso     1.000    
         H682      H         0.5000    0.5679    0.8605    0.0       1.0000    Biso     1.000    
         H683      H         0.5000    0.9321    0.8605    0.0       1.0000    Biso     1.000    
         H684      H         0.5000    0.9321    0.6395    0.0       1.0000    Biso     1.000    
         H685      H         0.5000    0.6395    0.9321    0.0       1.0000    Biso     1.000    
         H686      H         0.5000    0.8605    0.9321    0.0       1.0000    Biso     1.000    
         H687      H         0.5000    0.8605    0.5679    0.0       1.0000    Biso     1.000    
         H688      H         0.5000    0.6395    0.5679    0.0       1.0000    Biso     1.000    
         H689      H         0.6395    0.5679    0.5000    0.0       1.0000    Biso     1.000    
         H690      H         0.8605    0.5679    0.5000    0.0       1.0000    Biso     1.000    
         H691      H         0.8605    0.9321    0.5000    0.0       1.0000    Biso     1.000    
         H692      H         0.6395    0.9321    0.5000    0.0       1.0000    Biso     1.000    
         H693      H         0.5679    0.5000    0.8605    0.0       1.0000    Biso     1.000    
         H694      H         0.5679    0.5000    0.6395    0.0       1.0000    Biso     1.000    
         H695      H         0.9321    0.5000    0.6395    0.0       1.0000    Biso     1.000    
         H696      H         0.9321    0.5000    0.8605    0.0       1.0000    Biso     1.000    
         H697      H         0.6395    0.7500    0.8179    0.0       1.0000    Biso     1.000    
         H698      H         0.8605    0.7500    0.8179    0.0       1.0000    Biso     1.000    
         H699      H         0.8605    0.7500    0.6821    0.0       1.0000    Biso     1.000    
         H700      H         0.6395    0.7500    0.6821    0.0       1.0000    Biso     1.000    
         H701      H         0.5679    0.8895    0.7500    0.0       1.0000    Biso     1.000    
         H702      H         0.5679    0.6105    0.7500    0.0       1.0000    Biso     1.000    
         H703      H         0.9321    0.6105    0.7500    0.0       1.0000    Biso     1.000    
         H704      H         0.9321    0.8895    0.7500    0.0       1.0000    Biso     1.000    
         H705      H         0.5000    0.8179    0.8895    0.0       1.0000    Biso     1.000    
         H706      H         0.5000    0.8179    0.6105    0.0       1.0000    Biso     1.000    
         H707      H         0.5000    0.6821    0.6105    0.0       1.0000    Biso     1.000    
         H708      H         0.5000    0.6821    0.8895    0.0       1.0000    Biso     1.000    
         H709      H         0.5000    0.8895    0.6821    0.0       1.0000    Biso     1.000    
         H710      H         0.5000    0.6105    0.6821    0.0       1.0000    Biso     1.000    
         H711      H         0.5000    0.6105    0.8179    0.0       1.0000    Biso     1.000    
         H712      H         0.5000    0.8895    0.8179    0.0       1.0000    Biso     1.000    
         H713      H         0.6395    0.8179    0.7500    0.0       1.0000    Biso     1.000    
         H714      H         0.8605    0.8179    0.7500    0.0       1.0000    Biso     1.000    
         H715      H         0.8605    0.6821    0.7500    0.0       1.0000    Biso     1.000    
         H716      H         0.6395    0.6821    0.7500    0.0       1.0000    Biso     1.000    
         H717      H         0.5679    0.7500    0.6105    0.0       1.0000    Biso     1.000    
         H718      H         0.5679    0.7500    0.8895    0.0       1.0000    Biso     1.000    
         H719      H         0.9321    0.7500    0.8895    0.0       1.0000    Biso     1.000    
         H720      H         0.9321    0.7500    0.6105    0.0       1.0000    Biso     1.000    
         H721      H         0.8895    0.5000    0.8179    0.0       1.0000    Biso     1.000    
         H722      H         0.6105    0.5000    0.8179    0.0       1.0000    Biso     1.000    
         H723      H         0.6105    0.5000    0.6821    0.0       1.0000    Biso     1.000    
         H724      H         0.8895    0.5000    0.6821    0.0       1.0000    Biso     1.000    
         H725      H         0.8179    0.6395    0.7500    0.0       1.0000    Biso     1.000    
         H726      H         0.8179    0.8605    0.7500    0.0       1.0000    Biso     1.000    
         H727      H         0.6821    0.8605    0.7500    0.0       1.0000    Biso     1.000    
         H728      H         0.6821    0.6395    0.7500    0.0       1.0000    Biso     1.000    
         H729      H         0.7500    0.5679    0.8895    0.0       1.0000    Biso     1.000    
         H730      H         0.7500    0.5679    0.6105    0.0       1.0000    Biso     1.000    
         H731      H         0.7500    0.9321    0.6105    0.0       1.0000    Biso     1.000    
         H732      H         0.7500    0.9321    0.8895    0.0       1.0000    Biso     1.000    
         H733      H         0.7500    0.6395    0.6821    0.0       1.0000    Biso     1.000    
         H734      H         0.7500    0.8605    0.6821    0.0       1.0000    Biso     1.000    
         H735      H         0.7500    0.8605    0.8179    0.0       1.0000    Biso     1.000    
         H736      H         0.7500    0.6395    0.8179    0.0       1.0000    Biso     1.000    
         H737      H         0.8895    0.5679    0.7500    0.0       1.0000    Biso     1.000    
         H738      H         0.6105    0.5679    0.7500    0.0       1.0000    Biso     1.000    
         H739      H         0.6105    0.9321    0.7500    0.0       1.0000    Biso     1.000    
         H740      H         0.8895    0.9321    0.7500    0.0       1.0000    Biso     1.000    
         H741      H         0.8179    0.5000    0.6105    0.0       1.0000    Biso     1.000    
         H742      H         0.8179    0.5000    0.8895    0.0       1.0000    Biso     1.000    
         H743      H         0.6821    0.5000    0.8895    0.0       1.0000    Biso     1.000    
         H744      H         0.6821    0.5000    0.6105    0.0       1.0000    Biso     1.000    
         H745      H         0.8895    0.7500    0.5679    0.0       1.0000    Biso     1.000    
         H746      H         0.6105    0.7500    0.5679    0.0       1.0000    Biso     1.000    
         H747      H         0.6105    0.7500    0.9321    0.0       1.0000    Biso     1.000    
         H748      H         0.8895    0.7500    0.9321    0.0       1.0000    Biso     1.000    
         H749      H         0.8179    0.8895    0.5000    0.0       1.0000    Biso     1.000    
         H750      H         0.8179    0.6105    0.5000    0.0       1.0000    Biso     1.000    
         H751      H         0.6821    0.6105    0.5000    0.0       1.0000    Biso     1.000    
         H752      H         0.6821    0.8895    0.5000    0.0       1.0000    Biso     1.000    
         H753      H         0.7500    0.8179    0.6395    0.0       1.0000    Biso     1.000    
         H754      H         0.7500    0.8179    0.8605    0.0       1.0000    Biso     1.000    
         H755      H         0.7500    0.6821    0.8605    0.0       1.0000    Biso     1.000    
         H756      H         0.7500    0.6821    0.6395    0.0       1.0000    Biso     1.000    
         H757      H         0.7500    0.8895    0.9321    0.0       1.0000    Biso     1.000    
         H758      H         0.7500    0.6105    0.9321    0.0       1.0000    Biso     1.000    
         H759      H         0.7500    0.6105    0.5679    0.0       1.0000    Biso     1.000    
         H760      H         0.7500    0.8895    0.5679    0.0       1.0000    Biso     1.000    
         H761      H         0.8895    0.8179    0.5000    0.0       1.0000    Biso     1.000    
         H762      H         0.6105    0.8179    0.5000    0.0       1.0000    Biso     1.000    
         H763      H         0.6105    0.6821    0.5000    0.0       1.0000    Biso     1.000    
         H764      H         0.8895    0.6821    0.5000    0.0       1.0000    Biso     1.000    
         H765      H         0.8179    0.7500    0.8605    0.0       1.0000    Biso     1.000    
         H766      H         0.8179    0.7500    0.6395    0.0       1.0000    Biso     1.000    
         H767      H         0.6821    0.7500    0.6395    0.0       1.0000    Biso     1.000    
         H768      H         0.6821    0.7500    0.8605    0.0       1.0000    Biso     1.000    
         Hf1       Hf        0.9401    0.7500    0.2500    0.0       .         .        .        
         Hf2       Hf        0.0000    0.7500    0.1901    0.0       .         .        .        
         Hf3       Hf        0.0000    0.6901    0.2500    0.0       .         .        .        
         Hf4       Hf        0.6901    0.7500    0.5000    0.0       .         .        .        
         Hf5       Hf        0.7500    0.7500    0.5600    0.0       .         .        .        
         Hf6       Hf        0.7500    0.8099    0.5000    0.0       .         .        .        
         Hf7       Hf        0.5000    0.1901    0.7500    0.0       .         .        .        
         Hf8       Hf        0.5600    0.2500    0.7500    0.0       .         .        .        
         Hf9       Hf        0.5000    0.2500    0.8099    0.0       .         .        .        
         Hf10      Hf        0.5000    0.5599    0.5000    0.0       .         .        .        
         Hf11      Hf        0.4401    0.5000    0.5000    0.0       .         .        .        
         Hf12      Hf        0.5000    0.5000    0.5599    0.0       .         .        .        
         Hf13      Hf        0.0599    0.2500    0.7500    0.0       .         .        .        
         Hf14      Hf        0.0000    0.2500    0.6901    0.0       .         .        .        
         Hf15      Hf        0.0000    0.3099    0.7500    0.0       .         .        .        
         Hf16      Hf        0.0000    0.5599    0.5000    0.0       .         .        .        
         Hf17      Hf        0.9401    0.5000    0.5000    0.0       .         .        .        
         Hf18      Hf        0.0000    0.5000    0.5599    0.0       .         .        .        
         Hf19      Hf        0.8099    0.0000    0.2500    0.0       .         .        .        
         Hf20      Hf        0.7500    0.0000    0.1901    0.0       .         .        .        
         Hf21      Hf        0.7500    0.0599    0.2500    0.0       .         .        .        
         Hf22      Hf        0.0599    0.2500    0.2500    0.0       .         .        .        
         Hf23      Hf        0.0000    0.2500    0.1901    0.0       .         .        .        
         Hf24      Hf        0.0000    0.3099    0.2500    0.0       .         .        .        
         Hf25      Hf        0.2500    0.8099    0.5000    0.0       .         .        .        
         Hf26      Hf        0.2500    0.7500    0.5600    0.0       .         .        .        
         Hf27      Hf        0.3099    0.7500    0.5000    0.0       .         .        .        
         Hf28      Hf        0.2500    0.6901    0.0000    0.0       .         .        .        
         Hf29      Hf        0.3099    0.7500    0.0000    0.0       .         .        .        
         Hf30      Hf        0.2500    0.7500    0.0599    0.0       .         .        .        
         Hf31      Hf        0.5000    0.1901    0.2500    0.0       .         .        .        
         Hf32      Hf        0.5000    0.2500    0.3099    0.0       .         .        .        
         Hf33      Hf        0.4401    0.2500    0.2500    0.0       .         .        .        
         Hf34      Hf        0.2500    0.9401    0.2500    0.0       .         .        .        
         Hf35      Hf        0.2500    0.0000    0.3099    0.0       .         .        .        
         Hf36      Hf        0.1901    0.0000    0.2500    0.0       .         .        .        
         Hf37      Hf        0.6901    0.2500    0.0000    0.0       .         .        .        
         Hf38      Hf        0.7500    0.1901    0.0000    0.0       .         .        .        
         Hf39      Hf        0.7500    0.2500    0.0599    0.0       .         .        .        
         Hf40      Hf        0.0001    0.0599    1.0000    0.0       .         .        .        
         Hf41      Hf        0.0001    0.9401    0.0000    0.0       .         .        .        
         Hf42      Hf        0.0001    0.0000    0.0599    0.0       .         .        .        
         Hf43      Hf        0.5599    0.0001    0.0000    0.0       .         .        .        
         Hf44      Hf        0.4401    0.0001    1.0000    0.0       .         .        .        
         Hf45      Hf        0.5000    0.0001    0.9401    0.0       .         .        .        
         Hf46      Hf        0.9401    0.5000    0.0000    0.0       .         .        .        
         Hf47      Hf        0.0599    0.5000    0.0000    0.0       .         .        .        
         Hf48      Hf        0.0000    0.5000    0.0599    0.0       .         .        .        
         Hf49      Hf        0.0599    0.0001    0.5000    0.0       .         .        .        
         Hf50      Hf        0.9401    0.0001    0.5000    0.0       .         .        .        
         Hf51      Hf        1.0000    0.0001    0.4401    0.0       .         .        .        
         Hf52      Hf        0.2501    0.5599    0.2500    0.0       .         .        .        
         Hf53      Hf        0.2501    0.4401    0.2500    0.0       .         .        .        
         Hf54      Hf        0.2501    0.5000    0.3099    0.0       .         .        .        
         Hf55      Hf        0.2500    0.1901    0.0000    0.0       .         .        .        
         Hf56      Hf        0.2500    0.3099    0.0000    0.0       .         .        .        
         Hf57      Hf        0.1901    0.2500    0.0000    0.0       .         .        .        
         Hf58      Hf        0.2500    0.2499    0.4401    0.0       .         .        .        
         Hf59      Hf        0.2500    0.2499    0.5599    0.0       .         .        .        
         Hf60      Hf        0.3099    0.2499    0.5000    0.0       .         .        .        
         Hf61      Hf        0.4401    0.5000    0.0000    0.0       .         .        .        
         Hf62      Hf        0.5599    0.5000    1.0000    0.0       .         .        .        
         Hf63      Hf        0.5000    0.5000    0.9401    0.0       .         .        .        
         Hf64      Hf        0.5000    0.7500    0.1901    0.0       .         .        .        
         Hf65      Hf        0.5000    0.7500    0.3099    0.0       .         .        .        
         Hf66      Hf        0.5000    0.6901    0.2500    0.0       .         .        .        
         Hf67      Hf        0.5000    0.0000    0.5599    0.0       .         .        .        
         Hf68      Hf        0.5000    1.0000    0.4401    0.0       .         .        .        
         Hf69      Hf        0.5000    0.9401    0.5000    0.0       .         .        .        
         Hf70      Hf        0.8099    0.5000    0.2500    0.0       .         .        .        
         Hf71      Hf        0.6901    0.5000    0.2500    0.0       .         .        .        
         Hf72      Hf        0.7500    0.5000    0.1901    0.0       .         .        .        
         Hf73      Hf        0.6901    0.2500    0.5000    0.0       .         .        .        
         Hf74      Hf        0.8099    0.2500    0.5000    0.0       .         .        .        
         Hf75      Hf        0.7500    0.1901    0.5000    0.0       .         .        .        
         Hf76      Hf        0.7499    0.7500    0.0599    0.0       .         .        .        
         Hf77      Hf        0.7499    0.7500    0.9401    0.0       .         .        .        
         Hf78      Hf        0.7499    0.8099    0.0000    0.0       .         .        .        
         Hf79      Hf        0.2500    0.0001    0.6901    0.0       .         .        .        
         Hf80      Hf        0.2500    0.0001    0.8099    0.0       .         .        .        
         Hf81      Hf        0.1901    0.0001    0.7500    0.0       .         .        .        
         Hf82      Hf        0.3099    0.5000    0.7499    0.0       .         .        .        
         Hf83      Hf        0.1901    0.5000    0.7499    0.0       .         .        .        
         Hf84      Hf        0.2500    0.4401    0.7499    0.0       .         .        .        
         Hf85      Hf        0.0000    0.8099    0.7500    0.0       .         .        .        
         Hf86      Hf        0.0000    0.6901    0.7500    0.0       .         .        .        
         Hf87      Hf        0.0000    0.7500    0.6901    0.0       .         .        .        
         Hf88      Hf        0.5000    0.8099    0.7500    0.0       .         .        .        
         Hf89      Hf        0.5000    0.6901    0.7500    0.0       .         .        .        
         Hf90      Hf        0.5000    0.7500    0.8099    0.0       .         .        .        
         Hf91      Hf        0.8099    0.0000    0.7499    0.0       .         .        .        
         Hf92      Hf        0.6901    1.0000    0.7499    0.0       .         .        .        
         Hf93      Hf        0.7500    0.9401    0.7499    0.0       .         .        .        
         Hf94      Hf        0.7499    0.5000    0.8099    0.0       .         .        .        
         Hf95      Hf        0.7499    0.5000    0.6901    0.0       .         .        .        
         Hf96      Hf        0.7499    0.5599    0.7500    0.0       .         .        .
loop_
  _geom_bond_atom_site_label_1
  _geom_bond_atom_site_label_2
         Zr15      O493      
         Zr15      O491      
         Zr15      O236      
         Zr15      O238      
         Hf1       O493      
         Hf1       O491      
         Hf1       O490      
         Hf1       O495      
         O236      Zr14      
         O236      Zr12      
         O491      Hf3       
         O238      Hf3       
         O238      Zr12      
         O493      Zr14      
         Hf2       O490      
         Hf2       O495      
         Hf2       O240      
         Hf2       O233      
         Zr12      O240      
         Zr12      O233      
         Hf3       O495      
         Hf3       O233      
         Zr14      O490      
         Zr14      O240      
         Zr48      O511      
         Zr48      O506      
         Zr48      O505      
         Zr48      O512      
         Hf4       O511      
         Hf4       O506      
         Hf4       O1019     
         Hf4       O1021     
         O505      Zr96      
         O505      Zr95      
         O506      Hf6       
         O512      Hf6       
         O512      Zr95      
         O511      Zr96      
         Hf5       O1019     
         Hf5       O1021     
         Hf5       O1022     
         Hf5       O1020     
         Zr95      O1022     
         Zr95      O1020     
         Hf6       O1021     
         Hf6       O1020     
         Zr96      O1019     
         Zr96      O1022     
         Zr54      O623      
         Zr54      O619      
         Zr54      O618      
         Zr54      O621      
         Hf7       O623      
         Hf7       O619      
         Hf7       O873      
         Hf7       O878      
         O618      Zr81      
         O618      Zr80      
         O619      Hf9       
         O621      Hf9       
         O621      Zr80      
         O623      Zr81      
         Hf8       O873      
         Hf8       O878      
         Hf8       O880      
         Hf8       O876      
         Zr80      O880      
         Zr80      O876      
         Hf9       O878      
         Hf9       O876      
         Zr81      O873      
         Zr81      O880      
         Zr89      O488      
         Zr89      O996      
         Zr89      O353      
         Zr89      O870      
         Hf10      O488      
         Hf10      O996      
         Hf10      O226      
         Hf10      O741      
         O353      Zr39      
         O353      Zr78      
         O996      Hf12      
         O870      Hf12      
         O870      Zr78      
         O488      Zr39      
         Hf11      O226      
         Hf11      O741      
         Hf11      O103      
         Hf11      O611      
         Zr78      O103      
         Zr78      O611      
         Hf12      O741      
         Hf12      O611      
         Zr39      O226      
         Zr39      O103      
         Zr56      O622      
         Zr56      O620      
         Zr56      O875      
         Zr56      O877      
         Hf13      O622      
         Hf13      O620      
         Hf13      O617      
         Hf13      O624      
         O875      Zr55      
         O875      Zr79      
         O620      Hf15      
         O877      Hf15      
         O877      Zr79      
         O622      Zr55      
         Hf14      O617      
         Hf14      O624      
         Hf14      O879      
         Hf14      O874      
         Zr79      O879      
         Zr79      O874      
         Hf15      O624      
         Hf15      O874      
         Zr55      O617      
         Zr55      O879      
         Zr63      O232      
         Zr63      O740      
         Zr63      O97       
         Zr63      O614      
         Hf16      O232      
         Hf16      O740      
         Hf16      O482      
         Hf16      O997      
         O97       Zr11      
         O97       Zr51      
         O740      Hf18      
         O614      Hf18      
         O614      Zr51      
         O232      Zr11      
         Hf17      O482      
         Hf17      O997      
         Hf17      O359      
         Hf17      O867      
         Zr51      O359      
         Zr51      O867      
         Hf18      O997      
         Hf18      O867      
         Zr11      O482      
         Zr11      O359      
         Zr32      O502      
         Zr32      O372      
         Zr32      O499      
         Zr32      O373      
         Hf19      O502      
         Hf19      O372      
         Hf19      O497      
         Hf19      O376      
         O499      Zr43      
         O499      Zr30      
         O372      Hf21      
         O373      Hf21      
         O373      Zr30      
         O502      Zr43      
         Hf20      O497      
         Hf20      O376      
         Hf20      O503      
         Hf20      O370      
         Zr30      O503      
         Zr30      O370      
         Hf21      O376      
         Hf21      O370      
         Zr43      O497      
         Zr43      O503      
         Zr4       O110      
         Zr4       O108      
         Zr4       O363      
         Zr4       O365      
         Hf22      O110      
         Hf22      O108      
         Hf22      O105      
         Hf22      O112      
         O363      Zr3       
         O363      Zr27      
         O108      Hf24      
         O365      Hf24      
         O365      Zr27      
         O110      Zr3       
         Hf23      O105      
         Hf23      O112      
         Hf23      O367      
         Hf23      O362      
         Zr27      O367      
         Zr27      O362      
         Hf24      O112      
         Hf24      O362      
         Zr3       O105      
         Zr3       O367      
         Zr21      O250      
         Zr21      O256      
         Zr21      O255      
         Zr21      O249      
         Hf25      O250      
         Hf25      O256      
         Hf25      O765      
         Hf25      O764      
         O255      Zr73      
         O255      Zr74      
         O256      Hf27      
         O249      Hf27      
         O249      Zr74      
         O250      Zr73      
         Hf26      O765      
         Hf26      O764      
         Hf26      O763      
         Hf26      O766      
         Zr74      O763      
         Zr74      O766      
         Hf27      O764      
         Hf27      O766      
         Zr73      O765      
         Zr73      O763      
         Zr19      O767      
         Zr19      O251      
         Zr19      O762      
         Zr19      O253      
         Hf28      O767      
         Hf28      O251      
         Hf28      O761      
         Hf28      O254      
         O762      Zr75      
         O762      Zr20      
         O251      Hf30      
         O253      Hf30      
         O253      Zr20      
         O767      Zr75      
         Hf29      O761      
         Hf29      O254      
         Hf29      O768      
         Hf29      O252      
         Zr20      O768      
         Zr20      O252      
         Hf30      O254      
         Hf30      O252      
         Zr75      O761      
         Zr75      O768      
         Zr29      O361      
         Zr29      O111      
         Zr29      O368      
         Zr29      O106      
         Hf31      O361      
         Hf31      O111      
         Hf31      O366      
         Hf31      O107      
         O368      Zr26      
         O368      Zr28      
         O111      Hf33      
         O106      Hf33      
         O106      Zr28      
         O361      Zr26      
         Hf32      O366      
         Hf32      O107      
         Hf32      O364      
         Hf32      O109      
         Zr28      O364      
         Zr28      O109      
         Hf33      O107      
         Hf33      O109      
         Zr26      O366      
         Zr26      O364      
         Zr7       O241      
         Zr7       O247      
         Zr7       O120      
         Zr7       O114      
         Hf34      O241      
         Hf34      O247      
         Hf34      O246      
         Hf34      O243      
         O120      Zr5       
         O120      Zr6       
         O247      Hf36      
         O114      Hf36      
         O114      Zr6       
         O241      Zr5       
         Hf35      O246      
         Hf35      O243      
         Hf35      O116      
         Hf35      O117      
         Zr6       O116      
         Zr6       O117      
         Hf36      O243      
         Hf36      O117      
         Zr5       O246      
         Zr5       O116      
         Zr34      O890      
         Zr34      O381      
         Zr34      O896      
         Zr34      O380      
         Hf37      O890      
         Hf37      O381      
         Hf37      O895      
         Hf37      O379      
         O896      Zr88      
         O896      Zr33      
         O381      Hf39      
         O380      Hf39      
         O380      Zr33      
         O890      Zr88      
         Hf38      O895      
         Hf38      O379      
         Hf38      O889      
         Hf38      O382      
         Zr33      O889      
         Zr33      O382      
         Hf39      O379      
         Hf39      O382      
         Zr88      O895      
         Zr88      O889      
         Zr1       O616      
         Zr1       O100      
         Zr1       O737      
         Zr1       O230      
         Hf40      O616      
         Hf40      O100      
         Hf40      O866      
         Hf40      O357      
         O737      Zr53      
         O737      Hf41      
         O100      Hf42      
         O230      Hf42      
         O230      Hf41      
         O616      Zr53      
         Zr22      O866      
         Zr22      O357      
         Zr22      O999      
         Zr22      O483      
         Hf41      O999      
         Hf41      O483      
         Hf42      O357      
         Hf42      O483      
         Zr53      O866      
         Zr53      O999      
         Zr23      O356      
         Zr23      O872      
         Zr23      O101      
         Zr23      O610      
         Hf43      O356      
         Hf43      O872      
         Hf43      O486      
         Hf43      O993      
         O101      Zr25      
         O101      Hf44      
         O872      Hf45      
         O610      Hf45      
         O610      Hf44      
         O356      Zr25      
         Zr37      O486      
         Zr37      O993      
         Zr37      O227      
         Zr37      O743      
         Hf44      O227      
         Hf44      O743      
         Hf45      O993      
         Hf45      O743      
         Zr25      O486      
         Zr25      O227      
         Zr10      O994      
         Zr10      O485      
         Zr10      O744      
         Zr10      O228      
         Hf46      O994      
         Hf46      O485      
         Hf46      O871      
         Hf46      O355      
         O744      Zr65      
         O744      Hf47      
         O485      Hf48      
         O228      Hf48      
         O228      Hf47      
         O994      Zr65      
         Zr2       O871      
         Zr2       O355      
         Zr2       O609      
         Zr2       O102      
         Hf47      O609      
         Hf47      O102      
         Hf48      O355      
         Hf48      O102      
         Zr65      O871      
         Zr65      O609      
         Zr50      O612      
         Zr50      O104      
         Zr50      O869      
         Zr50      O354      
         Hf49      O612      
         Hf49      O104      
         Hf49      O742      
         Hf49      O225      
         O869      Zr52      
         O869      Hf50      
         O104      Hf51      
         O354      Hf51      
         O354      Hf50      
         O612      Zr52      
         Zr64      O742      
         Zr64      O225      
         Zr64      O995      
         Zr64      O487      
         Hf50      O995      
         Hf50      O487      
         Hf51      O225      
         Hf51      O487      
         Zr52      O742      
         Zr52      O995      
         Zr16      O248      
         Zr16      O244      
         Zr16      O113      
         Zr16      O118      
         Hf52      O248      
         Hf52      O244      
         Hf52      O242      
         Hf52      O245      
         O113      Zr18      
         O113      Hf53      
         O244      Hf54      
         O118      Hf54      
         O118      Hf53      
         O248      Zr18      
         Zr17      O242      
         Zr17      O245      
         Zr17      O119      
         Zr17      O115      
         Hf53      O119      
         Hf53      O115      
         Hf54      O245      
         Hf54      O115      
         Zr18      O242      
         Zr18      O119      
         Zr62      O633      
         Zr62      O639      
         Zr62      O640      
         Zr62      O634      
         Hf55      O633      
         Hf55      O639      
         Hf55      O126      
         Hf55      O123      
         O640      Zr8       
         O640      Hf56      
         O639      Hf57      
         O634      Hf57      
         O634      Hf56      
         O633      Zr8       
         Zr9       O126      
         Zr9       O123      
         Zr9       O124      
         Zr9       O125      
         Hf56      O124      
         Hf56      O125      
         Hf57      O123      
         Hf57      O125      
         Zr8       O126      
         Zr8       O124      
         Zr61      O127      
         Zr61      O121      
         Zr61      O635      
         Zr61      O638      
         Hf58      O127      
         Hf58      O121      
         Hf58      O122      
         Hf58      O128      
         O635      Zr59      
         O635      Hf59      
         O121      Hf60      
         O638      Hf60      
         O638      Hf59      
         O127      Zr59      
         Zr60      O122      
         Zr60      O128      
         Zr60      O637      
         Zr60      O636      
         Hf59      O637      
         Hf59      O636      
         Hf60      O128      
         Hf60      O636      
         Zr59      O122      
         Zr59      O637      
         Zr24      O99       
         Zr24      O615      
         Zr24      O358      
         Zr24      O865      
         Hf61      O99       
         Hf61      O615      
         Hf61      O229      
         Hf61      O738      
         O358      Zr38      
         O358      Hf62      
         O615      Hf63      
         O865      Hf63      
         O865      Hf62      
         O99       Zr38      
         Zr36      O229      
         Zr36      O738      
         Zr36      O484      
         Zr36      O1000     
         Hf62      O484      
         Hf62      O1000     
         Hf63      O738      
         Hf63      O1000     
         Zr38      O229      
         Zr38      O484      
         Zr13      O234      
         Zr13      O239      
         Zr13      O237      
         Zr13      O235      
         Hf64      O234      
         Hf64      O239      
         Hf64      O496      
         Hf64      O489      
         O237      Zr41      
         O237      Hf65      
         O239      Hf66      
         O235      Hf66      
         O235      Hf65      
         O234      Zr41      
         Zr40      O496      
         Zr40      O489      
         Zr40      O492      
         Zr40      O494      
         Hf65      O492      
         Hf65      O494      
         Hf66      O489      
         Hf66      O494      
         Zr41      O496      
         Zr41      O492      
         Zr76      O868      
         Zr76      O998      
         Zr76      O360      
         Zr76      O481      
         Hf67      O868      
         Hf67      O998      
         Hf67      O613      
         Hf67      O739      
         O360      Zr77      
         O360      Hf68      
         O998      Hf69      
         O481      Hf69      
         O481      Hf68      
         O868      Zr77      
         Zr49      O613      
         Zr49      O739      
         Zr49      O98       
         Zr49      O231      
         Hf68      O98       
         Hf68      O231      
         Hf69      O739      
         Hf69      O231      
         Zr77      O613      
         Zr77      O98       
         Zr42      O500      
         Zr42      O504      
         Zr42      O501      
         Zr42      O498      
         Hf70      O500      
         Hf70      O504      
         Hf70      O374      
         Hf70      O369      
         O501      Zr44      
         O501      Hf71      
         O504      Hf72      
         O498      Hf72      
         O498      Hf71      
         O500      Zr44      
         Zr31      O374      
         Zr31      O369      
         Zr31      O371      
         Zr31      O375      
         Hf71      O371      
         Hf71      O375      
         Hf72      O369      
         Hf72      O375      
         Zr44      O374      
         Zr44      O371      
         Zr87      O893      
         Zr87      O891      
         Zr87      O892      
         Zr87      O894      
         Hf73      O893      
         Hf73      O891      
         Hf73      O378      
         Hf73      O383      
         O892      Zr86      
         O892      Hf74      
         O891      Hf75      
         O894      Hf75      
         O894      Hf74      
         O893      Zr86      
         Zr35      O378      
         Zr35      O383      
         Zr35      O384      
         Zr35      O377      
         Hf74      O384      
         Hf74      O377      
         Hf75      O383      
         Hf75      O377      
         Zr86      O378      
         Zr86      O384      
         Zr46      O507      
         Zr46      O509      
         Zr46      O1023     
         Zr46      O1018     
         Hf76      O507      
         Hf76      O509      
         Hf76      O510      
         Hf76      O508      
         O1023     Zr47      
         O1023     Hf77      
         O509      Hf78      
         O1018     Hf78      
         O1018     Hf77      
         O507      Zr47      
         Zr45      O510      
         Zr45      O508      
         Zr45      O1017     
         Zr45      O1024     
         Hf77      O1017     
         Hf77      O1024     
         Hf78      O508      
         Hf78      O1024     
         Zr47      O510      
         Zr47      O1017     
         Zr58      O632      
         Zr58      O626      
         Zr58      O628      
         Zr58      O629      
         Hf79      O632      
         Hf79      O626      
         Hf79      O753      
         Hf79      O759      
         O628      Zr57      
         O628      Hf80      
         O626      Hf81      
         O629      Hf81      
         O629      Hf80      
         O632      Zr57      
         Zr70      O753      
         Zr70      O759      
         Zr70      O758      
         Zr70      O755      
         Hf80      O758      
         Hf80      O755      
         Hf81      O759      
         Hf81      O755      
         Zr57      O753      
         Zr57      O758      
         Zr72      O760      
         Zr72      O625      
         Zr72      O754      
         Zr72      O631      
         Hf82      O760      
         Hf82      O625      
         Hf82      O756      
         Hf82      O630      
         O754      Zr69      
         O754      Hf83      
         O625      Hf84      
         O631      Hf84      
         O631      Hf83      
         O760      Zr69      
         Zr71      O756      
         Zr71      O630      
         Zr71      O757      
         Zr71      O627      
         Hf83      O757      
         Hf83      O627      
         Hf84      O630      
         Hf84      O627      
         Zr69      O756      
         Zr69      O757      
         Zr91      O1005     
         Zr91      O1002     
         Zr91      O1003     
         Zr91      O1007     
         Hf85      O1005     
         Hf85      O1002     
         Hf85      O748      
         Hf85      O752      
         O1003     Zr68      
         O1003     Hf86      
         O1002     Hf87      
         O1007     Hf87      
         O1007     Hf86      
         O1005     Zr68      
         Zr66      O748      
         Zr66      O752      
         Zr66      O750      
         Zr66      O745      
         Hf86      O750      
         Hf86      O745      
         Hf87      O752      
         Hf87      O745      
         Zr68      O748      
         Zr68      O750      
         Zr90      O1008     
         Zr90      O1004     
         Zr90      O1001     
         Zr90      O1006     
         Hf88      O1008     
         Hf88      O1004     
         Hf88      O746      
         Hf88      O749      
         O1001     Zr92      
         O1001     Hf89      
         O1004     Hf90      
         O1006     Hf90      
         O1006     Hf89      
         O1008     Zr92      
         Zr67      O746      
         Zr67      O749      
         Zr67      O751      
         Zr67      O747      
         Hf89      O751      
         Hf89      O747      
         Hf90      O749      
         Hf90      O747      
         Zr92      O746      
         Zr92      O751      
         Zr85      O888      
         Zr85      O1009     
         Zr85      O882      
         Zr85      O1015     
         Hf91      O888      
         Hf91      O1009     
         Hf91      O884      
         Hf91      O1014     
         O882      Zr82      
         O882      Hf92      
         O1009     Hf93      
         O1015     Hf93      
         O1015     Hf92      
         O888      Zr82      
         Zr84      O884      
         Zr84      O1014     
         Zr84      O885      
         Zr84      O1011     
         Hf92      O885      
         Hf92      O1011     
         Hf93      O1014     
         Hf93      O1011     
         Zr82      O884      
         Zr82      O885      
         Zr94      O883      
         Zr94      O1013     
         Zr94      O887      
         Zr94      O1010     
         Hf94      O883      
         Hf94      O1013     
         Hf94      O886      
         Hf94      O1012     
         O887      Zr83      
         O887      Hf95      
         O1013     Hf96      
         O1010     Hf96      
         O1010     Hf95      
         O883      Zr83      
         Zr93      O886      
         Zr93      O1012     
         Zr93      O881      
         Zr93      O1016     
         Hf95      O881      
         Hf95      O1016     
         Hf96      O1012     
         Hf96      O1016     
         Zr83      O886      
         Zr83      O881 