data_HKUST-1_EQeq_1.20_hI0_-2.00
_audit_creation_date              2014-10-26
_audit_creation_method            'Materials Studio'
_symmetry_space_group_name_H-M    'P1'
_symmetry_Int_Tables_number       1
_symmetry_cell_setting            triclinic
loop_
_symmetry_equiv_pos_as_xyz
  x,y,z
_cell_length_a                    26.3430
_cell_length_b                    26.3430
_cell_length_c                    26.3430
_cell_angle_alpha                 90.0000
_cell_angle_beta                  90.0000
_cell_angle_gamma                 90.0000
loop_
_atom_site_label
_atom_site_type_symbol
_atom_site_fract_x
_atom_site_fract_y
_atom_site_fract_z
_atom_site_U_iso_or_equiv
_atom_site_adp_type
_atom_site_occupancy
C1     C     0.32198   0.17800   0.88699   0.00000  Uiso   1.00
C2     C     0.67802   0.82200   0.88699   0.00000  Uiso   1.00
C3     C     0.67802   0.17800   0.11301   0.00000  Uiso   1.00
C4     C     0.32198   0.82200   0.11301   0.00000  Uiso   1.00
C5     C     0.88699   0.32198   0.17800   0.00000  Uiso   1.00
C6     C     0.88699   0.67802   0.82200   0.00000  Uiso   1.00
C7     C     0.11301   0.67802   0.17800   0.00000  Uiso   1.00
C8     C     0.11301   0.32198   0.82200   0.00000  Uiso   1.00
C9     C     0.17800   0.88699   0.32198   0.00000  Uiso   1.00
C10    C     0.82200   0.88699   0.67802   0.00000  Uiso   1.00
C11    C     0.17800   0.11301   0.67802   0.00000  Uiso   1.00
C12    C     0.82200   0.11301   0.32198   0.00000  Uiso   1.00
C13    C     0.17800   0.32198   0.11301   0.00000  Uiso   1.00
C14    C     0.82200   0.67802   0.11301   0.00000  Uiso   1.00
C15    C     0.17800   0.67802   0.88699   0.00000  Uiso   1.00
C16    C     0.82200   0.32198   0.88699   0.00000  Uiso   1.00
C17    C     0.32198   0.88699   0.82200   0.00000  Uiso   1.00
C18    C     0.67802   0.88699   0.17800   0.00000  Uiso   1.00
C19    C     0.67802   0.11301   0.82200   0.00000  Uiso   1.00
C20    C     0.32198   0.11301   0.17800   0.00000  Uiso   1.00
C21    C     0.88699   0.17800   0.67802   0.00000  Uiso   1.00
C22    C     0.88699   0.82200   0.32198   0.00000  Uiso   1.00
C23    C     0.11301   0.17800   0.32198   0.00000  Uiso   1.00
C24    C     0.11301   0.82200   0.67802   0.00000  Uiso   1.00
C25    C     0.67802   0.82200   0.11301   0.00000  Uiso   1.00
C26    C     0.32198   0.17800   0.11301   0.00000  Uiso   1.00
C27    C     0.32198   0.82200   0.88699   0.00000  Uiso   1.00
C28    C     0.67802   0.17800   0.88699   0.00000  Uiso   1.00
C29    C     0.11301   0.67802   0.82200   0.00000  Uiso   1.00
C30    C     0.11301   0.32198   0.17800   0.00000  Uiso   1.00
C31    C     0.88699   0.32198   0.82200   0.00000  Uiso   1.00
C32    C     0.88699   0.67802   0.17800   0.00000  Uiso   1.00
C33    C     0.82200   0.11301   0.67802   0.00000  Uiso   1.00
C34    C     0.17800   0.11301   0.32198   0.00000  Uiso   1.00
C35    C     0.82200   0.88699   0.32198   0.00000  Uiso   1.00
C36    C     0.17800   0.88699   0.67802   0.00000  Uiso   1.00
C37    C     0.82200   0.67802   0.88699   0.00000  Uiso   1.00
C38    C     0.17800   0.32198   0.88699   0.00000  Uiso   1.00
C39    C     0.82200   0.32198   0.11301   0.00000  Uiso   1.00
C40    C     0.17800   0.67802   0.11301   0.00000  Uiso   1.00
C41    C     0.67802   0.11301   0.17800   0.00000  Uiso   1.00
C42    C     0.32198   0.11301   0.82200   0.00000  Uiso   1.00
C43    C     0.32198   0.88699   0.17800   0.00000  Uiso   1.00
C44    C     0.67802   0.88699   0.82200   0.00000  Uiso   1.00
C45    C     0.11301   0.82200   0.32198   0.00000  Uiso   1.00
C46    C     0.11301   0.17800   0.67802   0.00000  Uiso   1.00
C47    C     0.88699   0.82200   0.67802   0.00000  Uiso   1.00
C48    C     0.88699   0.17800   0.32198   0.00000  Uiso   1.00
C49    C     0.32198   0.67802   0.38701   0.00000  Uiso   1.00
C50    C     0.67802   0.32198   0.38701   0.00000  Uiso   1.00
C51    C     0.67802   0.67802   0.61299   0.00000  Uiso   1.00
C52    C     0.32198   0.32198   0.61299   0.00000  Uiso   1.00
C53    C     0.17800   0.38701   0.82200   0.00000  Uiso   1.00
C54    C     0.82200   0.38701   0.17800   0.00000  Uiso   1.00
C55    C     0.17800   0.61299   0.17800   0.00000  Uiso   1.00
C56    C     0.82200   0.61299   0.82200   0.00000  Uiso   1.00
C57    C     0.17800   0.82200   0.61299   0.00000  Uiso   1.00
C58    C     0.82200   0.17800   0.61299   0.00000  Uiso   1.00
C59    C     0.17800   0.17800   0.38701   0.00000  Uiso   1.00
C60    C     0.82200   0.82200   0.38701   0.00000  Uiso   1.00
C61    C     0.32198   0.38701   0.32198   0.00000  Uiso   1.00
C62    C     0.67802   0.38701   0.67802   0.00000  Uiso   1.00
C63    C     0.67802   0.61299   0.32198   0.00000  Uiso   1.00
C64    C     0.32198   0.61299   0.67802   0.00000  Uiso   1.00
C65    C     0.67802   0.32198   0.61299   0.00000  Uiso   1.00
C66    C     0.32198   0.67802   0.61299   0.00000  Uiso   1.00
C67    C     0.32198   0.32198   0.38701   0.00000  Uiso   1.00
C68    C     0.67802   0.67802   0.38701   0.00000  Uiso   1.00
C69    C     0.82200   0.61299   0.17800   0.00000  Uiso   1.00
C70    C     0.17800   0.61299   0.82200   0.00000  Uiso   1.00
C71    C     0.82200   0.38701   0.82200   0.00000  Uiso   1.00
C72    C     0.17800   0.38701   0.17800   0.00000  Uiso   1.00
C73    C     0.82200   0.17800   0.38701   0.00000  Uiso   1.00
C74    C     0.17800   0.82200   0.38701   0.00000  Uiso   1.00
C75    C     0.82200   0.82200   0.61299   0.00000  Uiso   1.00
C76    C     0.17800   0.17800   0.61299   0.00000  Uiso   1.00
C77    C     0.67802   0.61299   0.67802   0.00000  Uiso   1.00
C78    C     0.32198   0.61299   0.32198   0.00000  Uiso   1.00
C79    C     0.32198   0.38701   0.67802   0.00000  Uiso   1.00
C80    C     0.67802   0.38701   0.32198   0.00000  Uiso   1.00
C81    C     0.38701   0.32198   0.67802   0.00000  Uiso   1.00
C82    C     0.38701   0.67802   0.32198   0.00000  Uiso   1.00
C83    C     0.61299   0.67802   0.67802   0.00000  Uiso   1.00
C84    C     0.61299   0.32198   0.32198   0.00000  Uiso   1.00
C85    C     0.38701   0.17800   0.17800   0.00000  Uiso   1.00
C86    C     0.38701   0.82200   0.82200   0.00000  Uiso   1.00
C87    C     0.61299   0.17800   0.82200   0.00000  Uiso   1.00
C88    C     0.61299   0.82200   0.17800   0.00000  Uiso   1.00
C89    C     0.61299   0.67802   0.32198   0.00000  Uiso   1.00
C90    C     0.61299   0.32198   0.67802   0.00000  Uiso   1.00
C91    C     0.38701   0.32198   0.32198   0.00000  Uiso   1.00
C92    C     0.38701   0.67802   0.67802   0.00000  Uiso   1.00
C93    C     0.61299   0.82200   0.82200   0.00000  Uiso   1.00
C94    C     0.61299   0.17800   0.17800   0.00000  Uiso   1.00
C95    C     0.38701   0.82200   0.17800   0.00000  Uiso   1.00
C96    C     0.38701   0.17800   0.82200   0.00000  Uiso   1.00
C97    C     0.29682   0.20320   0.93129   0.00000  Uiso   1.00
C98    C     0.70319   0.79680   0.93129   0.00000  Uiso   1.00
C99    C     0.70319   0.20320   0.06871   0.00000  Uiso   1.00
C100   C     0.29682   0.79680   0.06871   0.00000  Uiso   1.00
C101   C     0.93129   0.29682   0.20320   0.00000  Uiso   1.00
C102   C     0.93129   0.70319   0.79680   0.00000  Uiso   1.00
C103   C     0.06871   0.70319   0.20320   0.00000  Uiso   1.00
C104   C     0.06871   0.29682   0.79680   0.00000  Uiso   1.00
C105   C     0.20320   0.93129   0.29682   0.00000  Uiso   1.00
C106   C     0.79680   0.93129   0.70319   0.00000  Uiso   1.00
C107   C     0.20320   0.06871   0.70319   0.00000  Uiso   1.00
C108   C     0.79680   0.06871   0.29682   0.00000  Uiso   1.00
C109   C     0.20320   0.29682   0.06871   0.00000  Uiso   1.00
C110   C     0.79680   0.70319   0.06871   0.00000  Uiso   1.00
C111   C     0.20320   0.70319   0.93129   0.00000  Uiso   1.00
C112   C     0.79680   0.29682   0.93129   0.00000  Uiso   1.00
C113   C     0.29682   0.93129   0.79680   0.00000  Uiso   1.00
C114   C     0.70319   0.93129   0.20320   0.00000  Uiso   1.00
C115   C     0.70319   0.06871   0.79680   0.00000  Uiso   1.00
C116   C     0.29682   0.06871   0.20320   0.00000  Uiso   1.00
C117   C     0.93129   0.20320   0.70319   0.00000  Uiso   1.00
C118   C     0.93129   0.79680   0.29682   0.00000  Uiso   1.00
C119   C     0.06871   0.20320   0.29682   0.00000  Uiso   1.00
C120   C     0.06871   0.79680   0.70319   0.00000  Uiso   1.00
C121   C     0.70319   0.79680   0.06871   0.00000  Uiso   1.00
C122   C     0.29682   0.20320   0.06871   0.00000  Uiso   1.00
C123   C     0.29682   0.79680   0.93129   0.00000  Uiso   1.00
C124   C     0.70319   0.20320   0.93129   0.00000  Uiso   1.00
C125   C     0.06871   0.70319   0.79680   0.00000  Uiso   1.00
C126   C     0.06871   0.29682   0.20320   0.00000  Uiso   1.00
C127   C     0.93129   0.29682   0.79680   0.00000  Uiso   1.00
C128   C     0.93129   0.70319   0.20320   0.00000  Uiso   1.00
C129   C     0.79680   0.06871   0.70319   0.00000  Uiso   1.00
C130   C     0.20320   0.06871   0.29682   0.00000  Uiso   1.00
C131   C     0.79680   0.93129   0.29682   0.00000  Uiso   1.00
C132   C     0.20320   0.93129   0.70319   0.00000  Uiso   1.00
C133   C     0.79680   0.70319   0.93129   0.00000  Uiso   1.00
C134   C     0.20320   0.29682   0.93129   0.00000  Uiso   1.00
C135   C     0.79680   0.29682   0.06871   0.00000  Uiso   1.00
C136   C     0.20320   0.70319   0.06871   0.00000  Uiso   1.00
C137   C     0.70319   0.06871   0.20320   0.00000  Uiso   1.00
C138   C     0.29682   0.06871   0.79680   0.00000  Uiso   1.00
C139   C     0.29682   0.93129   0.20320   0.00000  Uiso   1.00
C140   C     0.70319   0.93129   0.79680   0.00000  Uiso   1.00
C141   C     0.06871   0.79680   0.29682   0.00000  Uiso   1.00
C142   C     0.06871   0.20320   0.70319   0.00000  Uiso   1.00
C143   C     0.93129   0.79680   0.70319   0.00000  Uiso   1.00
C144   C     0.93129   0.20320   0.29682   0.00000  Uiso   1.00
C145   C     0.29682   0.70319   0.43131   0.00000  Uiso   1.00
C146   C     0.70319   0.29682   0.43131   0.00000  Uiso   1.00
C147   C     0.70319   0.70319   0.56869   0.00000  Uiso   1.00
C148   C     0.29682   0.29682   0.56869   0.00000  Uiso   1.00
C149   C     0.20320   0.43131   0.79680   0.00000  Uiso   1.00
C150   C     0.79680   0.43131   0.20320   0.00000  Uiso   1.00
C151   C     0.20320   0.56869   0.20320   0.00000  Uiso   1.00
C152   C     0.79680   0.56869   0.79680   0.00000  Uiso   1.00
C153   C     0.20320   0.79680   0.56869   0.00000  Uiso   1.00
C154   C     0.79680   0.20320   0.56869   0.00000  Uiso   1.00
C155   C     0.20320   0.20320   0.43131   0.00000  Uiso   1.00
C156   C     0.79680   0.79680   0.43131   0.00000  Uiso   1.00
C157   C     0.29682   0.43131   0.29682   0.00000  Uiso   1.00
C158   C     0.70319   0.43131   0.70319   0.00000  Uiso   1.00
C159   C     0.70319   0.56869   0.29682   0.00000  Uiso   1.00
C160   C     0.29682   0.56869   0.70319   0.00000  Uiso   1.00
C161   C     0.70319   0.29682   0.56869   0.00000  Uiso   1.00
C162   C     0.29682   0.70319   0.56869   0.00000  Uiso   1.00
C163   C     0.29682   0.29682   0.43131   0.00000  Uiso   1.00
C164   C     0.70319   0.70319   0.43131   0.00000  Uiso   1.00
C165   C     0.79680   0.56869   0.20320   0.00000  Uiso   1.00
C166   C     0.20320   0.56869   0.79680   0.00000  Uiso   1.00
C167   C     0.79680   0.43131   0.79680   0.00000  Uiso   1.00
C168   C     0.20320   0.43131   0.20320   0.00000  Uiso   1.00
C169   C     0.79680   0.20320   0.43131   0.00000  Uiso   1.00
C170   C     0.20320   0.79680   0.43131   0.00000  Uiso   1.00
C171   C     0.79680   0.79680   0.56869   0.00000  Uiso   1.00
C172   C     0.20320   0.20320   0.56869   0.00000  Uiso   1.00
C173   C     0.70319   0.56869   0.70319   0.00000  Uiso   1.00
C174   C     0.29682   0.56869   0.29682   0.00000  Uiso   1.00
C175   C     0.29682   0.43131   0.70319   0.00000  Uiso   1.00
C176   C     0.70319   0.43131   0.29682   0.00000  Uiso   1.00
C177   C     0.43131   0.29682   0.70319   0.00000  Uiso   1.00
C178   C     0.43131   0.70319   0.29682   0.00000  Uiso   1.00
C179   C     0.56869   0.70319   0.70319   0.00000  Uiso   1.00
C180   C     0.56869   0.29682   0.29682   0.00000  Uiso   1.00
C181   C     0.43131   0.20320   0.20320   0.00000  Uiso   1.00
C182   C     0.43131   0.79680   0.79680   0.00000  Uiso   1.00
C183   C     0.56869   0.20320   0.79680   0.00000  Uiso   1.00
C184   C     0.56869   0.79680   0.20320   0.00000  Uiso   1.00
C185   C     0.56869   0.70319   0.29682   0.00000  Uiso   1.00
C186   C     0.56869   0.29682   0.70319   0.00000  Uiso   1.00
C187   C     0.43131   0.29682   0.29682   0.00000  Uiso   1.00
C188   C     0.43131   0.70319   0.70319   0.00000  Uiso   1.00
C189   C     0.56869   0.79680   0.79680   0.00000  Uiso   1.00
C190   C     0.56869   0.20320   0.20320   0.00000  Uiso   1.00
C191   C     0.43131   0.79680   0.20320   0.00000  Uiso   1.00
C192   C     0.43131   0.20320   0.79680   0.00000  Uiso   1.00
C193   C     0.36549   0.19941   0.86550   0.00000  Uiso   1.00
C194   C     0.63451   0.80059   0.86550   0.00000  Uiso   1.00
C195   C     0.63451   0.19941   0.13450   0.00000  Uiso   1.00
C196   C     0.36549   0.80059   0.13450   0.00000  Uiso   1.00
C197   C     0.86550   0.36549   0.19941   0.00000  Uiso   1.00
C198   C     0.86550   0.63451   0.80059   0.00000  Uiso   1.00
C199   C     0.13450   0.63451   0.19941   0.00000  Uiso   1.00
C200   C     0.13450   0.36549   0.80059   0.00000  Uiso   1.00
C201   C     0.19941   0.86550   0.36549   0.00000  Uiso   1.00
C202   C     0.80059   0.86550   0.63451   0.00000  Uiso   1.00
C203   C     0.19941   0.13450   0.63451   0.00000  Uiso   1.00
C204   C     0.80059   0.13450   0.36549   0.00000  Uiso   1.00
C205   C     0.19941   0.36549   0.13450   0.00000  Uiso   1.00
C206   C     0.80059   0.63451   0.13450   0.00000  Uiso   1.00
C207   C     0.19941   0.63451   0.86550   0.00000  Uiso   1.00
C208   C     0.80059   0.36549   0.86550   0.00000  Uiso   1.00
C209   C     0.36549   0.86550   0.80059   0.00000  Uiso   1.00
C210   C     0.63451   0.86550   0.19941   0.00000  Uiso   1.00
C211   C     0.63451   0.13450   0.80059   0.00000  Uiso   1.00
C212   C     0.36549   0.13450   0.19941   0.00000  Uiso   1.00
C213   C     0.86550   0.19941   0.63451   0.00000  Uiso   1.00
C214   C     0.86550   0.80059   0.36549   0.00000  Uiso   1.00
C215   C     0.13450   0.19941   0.36549   0.00000  Uiso   1.00
C216   C     0.13450   0.80059   0.63451   0.00000  Uiso   1.00
C217   C     0.63451   0.80059   0.13450   0.00000  Uiso   1.00
C218   C     0.36549   0.19941   0.13450   0.00000  Uiso   1.00
C219   C     0.36549   0.80059   0.86550   0.00000  Uiso   1.00
C220   C     0.63451   0.19941   0.86550   0.00000  Uiso   1.00
C221   C     0.13450   0.63451   0.80059   0.00000  Uiso   1.00
C222   C     0.13450   0.36549   0.19941   0.00000  Uiso   1.00
C223   C     0.86550   0.36549   0.80059   0.00000  Uiso   1.00
C224   C     0.86550   0.63451   0.19941   0.00000  Uiso   1.00
C225   C     0.80059   0.13450   0.63451   0.00000  Uiso   1.00
C226   C     0.19941   0.13450   0.36549   0.00000  Uiso   1.00
C227   C     0.80059   0.86550   0.36549   0.00000  Uiso   1.00
C228   C     0.19941   0.86550   0.63451   0.00000  Uiso   1.00
C229   C     0.80059   0.63451   0.86550   0.00000  Uiso   1.00
C230   C     0.19941   0.36549   0.86550   0.00000  Uiso   1.00
C231   C     0.80059   0.36549   0.13450   0.00000  Uiso   1.00
C232   C     0.19941   0.63451   0.13450   0.00000  Uiso   1.00
C233   C     0.63451   0.13450   0.19941   0.00000  Uiso   1.00
C234   C     0.36549   0.13450   0.80059   0.00000  Uiso   1.00
C235   C     0.36549   0.86550   0.19941   0.00000  Uiso   1.00
C236   C     0.63451   0.86550   0.80059   0.00000  Uiso   1.00
C237   C     0.13450   0.80059   0.36549   0.00000  Uiso   1.00
C238   C     0.13450   0.19941   0.63451   0.00000  Uiso   1.00
C239   C     0.86550   0.80059   0.63451   0.00000  Uiso   1.00
C240   C     0.86550   0.19941   0.36549   0.00000  Uiso   1.00
C241   C     0.36549   0.69939   0.36549   0.00000  Uiso   1.00
C242   C     0.63451   0.30061   0.36549   0.00000  Uiso   1.00
C243   C     0.63451   0.69939   0.63451   0.00000  Uiso   1.00
C244   C     0.36549   0.30061   0.63451   0.00000  Uiso   1.00
C245   C     0.86550   0.86550   0.69939   0.00000  Uiso   1.00
C246   C     0.86550   0.13450   0.30061   0.00000  Uiso   1.00
C247   C     0.13450   0.13450   0.69939   0.00000  Uiso   1.00
C248   C     0.13450   0.86550   0.30061   0.00000  Uiso   1.00
C249   C     0.36549   0.36549   0.30061   0.00000  Uiso   1.00
C250   C     0.63451   0.36549   0.69939   0.00000  Uiso   1.00
C251   C     0.63451   0.63451   0.30061   0.00000  Uiso   1.00
C252   C     0.36549   0.63451   0.69939   0.00000  Uiso   1.00
C253   C     0.86550   0.69939   0.13450   0.00000  Uiso   1.00
C254   C     0.86550   0.30061   0.86550   0.00000  Uiso   1.00
C255   C     0.13450   0.69939   0.86550   0.00000  Uiso   1.00
C256   C     0.13450   0.30061   0.13450   0.00000  Uiso   1.00
C257   C     0.63451   0.30061   0.63451   0.00000  Uiso   1.00
C258   C     0.36549   0.69939   0.63451   0.00000  Uiso   1.00
C259   C     0.36549   0.30061   0.36549   0.00000  Uiso   1.00
C260   C     0.63451   0.69939   0.36549   0.00000  Uiso   1.00
C261   C     0.13450   0.13450   0.30061   0.00000  Uiso   1.00
C262   C     0.13450   0.86550   0.69939   0.00000  Uiso   1.00
C263   C     0.86550   0.86550   0.30061   0.00000  Uiso   1.00
C264   C     0.86550   0.13450   0.69939   0.00000  Uiso   1.00
C265   C     0.63451   0.63451   0.69939   0.00000  Uiso   1.00
C266   C     0.36549   0.63451   0.30061   0.00000  Uiso   1.00
C267   C     0.36549   0.36549   0.69939   0.00000  Uiso   1.00
C268   C     0.63451   0.36549   0.30061   0.00000  Uiso   1.00
C269   C     0.13450   0.30061   0.86550   0.00000  Uiso   1.00
C270   C     0.13450   0.69939   0.13450   0.00000  Uiso   1.00
C271   C     0.86550   0.30061   0.13450   0.00000  Uiso   1.00
C272   C     0.86550   0.69939   0.86550   0.00000  Uiso   1.00
C273   C     0.69939   0.86550   0.86550   0.00000  Uiso   1.00
C274   C     0.30061   0.86550   0.13450   0.00000  Uiso   1.00
C275   C     0.69939   0.13450   0.13450   0.00000  Uiso   1.00
C276   C     0.30061   0.13450   0.86550   0.00000  Uiso   1.00
C277   C     0.69939   0.36549   0.63451   0.00000  Uiso   1.00
C278   C     0.30061   0.63451   0.63451   0.00000  Uiso   1.00
C279   C     0.69939   0.63451   0.36549   0.00000  Uiso   1.00
C280   C     0.30061   0.36549   0.36549   0.00000  Uiso   1.00
C281   C     0.30061   0.13450   0.13450   0.00000  Uiso   1.00
C282   C     0.69939   0.13450   0.86550   0.00000  Uiso   1.00
C283   C     0.30061   0.86550   0.86550   0.00000  Uiso   1.00
C284   C     0.69939   0.86550   0.13450   0.00000  Uiso   1.00
C285   C     0.30061   0.63451   0.36549   0.00000  Uiso   1.00
C286   C     0.69939   0.36549   0.36549   0.00000  Uiso   1.00
C287   C     0.30061   0.36549   0.63451   0.00000  Uiso   1.00
C288   C     0.69939   0.63451   0.63451   0.00000  Uiso   1.00
Cu289  Cu    0.28531   0.28531  -0.00000   0.00000  Uiso   1.00
Cu290  Cu    0.71469   0.71469  -0.00000   0.00000  Uiso   1.00
Cu291  Cu    0.71469   0.28531  -0.00000   0.00000  Uiso   1.00
Cu292  Cu    0.28531   0.71469  -0.00000   0.00000  Uiso   1.00
Cu293  Cu   -0.00000   0.28531   0.28531   0.00000  Uiso   1.00
Cu294  Cu   -0.00000   0.71469   0.71469   0.00000  Uiso   1.00
Cu295  Cu   -0.00000   0.71469   0.28531   0.00000  Uiso   1.00
Cu296  Cu   -0.00000   0.28531   0.71469   0.00000  Uiso   1.00
Cu297  Cu    0.28531  -0.00000   0.28531   0.00000  Uiso   1.00
Cu298  Cu    0.71469  -0.00000   0.71469   0.00000  Uiso   1.00
Cu299  Cu    0.28531  -0.00000   0.71469   0.00000  Uiso   1.00
Cu300  Cu    0.71469  -0.00000   0.28531   0.00000  Uiso   1.00
Cu301  Cu    0.28531   0.78529   0.50002   0.00000  Uiso   1.00
Cu302  Cu    0.71469   0.21471   0.50002   0.00000  Uiso   1.00
Cu303  Cu    0.71469   0.78529   0.50002   0.00000  Uiso   1.00
Cu304  Cu    0.28531   0.21471   0.50002   0.00000  Uiso   1.00
Cu305  Cu   -0.00000   0.78529   0.78529   0.00000  Uiso   1.00
Cu306  Cu   -0.00000   0.21471   0.21471   0.00000  Uiso   1.00
Cu307  Cu   -0.00000   0.21471   0.78529   0.00000  Uiso   1.00
Cu308  Cu   -0.00000   0.78529   0.21471   0.00000  Uiso   1.00
Cu309  Cu    0.28531   0.50002   0.78529   0.00000  Uiso   1.00
Cu310  Cu    0.71469   0.50002   0.21471   0.00000  Uiso   1.00
Cu311  Cu    0.28531   0.50002   0.21471   0.00000  Uiso   1.00
Cu312  Cu    0.71469   0.50002   0.78529   0.00000  Uiso   1.00
Cu313  Cu    0.78529   0.28531   0.50002   0.00000  Uiso   1.00
Cu314  Cu    0.21471   0.71469   0.50002   0.00000  Uiso   1.00
Cu315  Cu    0.21471   0.28531   0.50002   0.00000  Uiso   1.00
Cu316  Cu    0.78529   0.71469   0.50002   0.00000  Uiso   1.00
Cu317  Cu    0.50002   0.28531   0.78529   0.00000  Uiso   1.00
Cu318  Cu    0.50002   0.71469   0.21471   0.00000  Uiso   1.00
Cu319  Cu    0.50002   0.71469   0.78529   0.00000  Uiso   1.00
Cu320  Cu    0.50002   0.28531   0.21471   0.00000  Uiso   1.00
Cu321  Cu    0.78529  -0.00000   0.78529   0.00000  Uiso   1.00
Cu322  Cu    0.21471  -0.00000   0.21471   0.00000  Uiso   1.00
Cu323  Cu    0.78529  -0.00000   0.21471   0.00000  Uiso   1.00
Cu324  Cu    0.21471  -0.00000   0.78529   0.00000  Uiso   1.00
Cu325  Cu    0.78529   0.78529  -0.00000   0.00000  Uiso   1.00
Cu326  Cu    0.21471   0.21471  -0.00000   0.00000  Uiso   1.00
Cu327  Cu    0.21471   0.78529  -0.00000   0.00000  Uiso   1.00
Cu328  Cu    0.78529   0.21471  -0.00000   0.00000  Uiso   1.00
Cu329  Cu    0.50002   0.78529   0.28531   0.00000  Uiso   1.00
Cu330  Cu    0.50002   0.21471   0.71469   0.00000  Uiso   1.00
Cu331  Cu    0.50002   0.21471   0.28531   0.00000  Uiso   1.00
Cu332  Cu    0.50002   0.78529   0.71469   0.00000  Uiso   1.00
Cu333  Cu    0.78529   0.50002   0.28531   0.00000  Uiso   1.00
Cu334  Cu    0.21471   0.50002   0.71469   0.00000  Uiso   1.00
Cu335  Cu    0.78529   0.50002   0.71469   0.00000  Uiso   1.00
Cu336  Cu    0.21471   0.50002   0.28531   0.00000  Uiso   1.00
H337   H     0.38021   0.22799   0.88020   0.00000  Uiso   1.00
H338   H     0.61979   0.77201   0.88020   0.00000  Uiso   1.00
H339   H     0.61979   0.22799   0.11980   0.00000  Uiso   1.00
H340   H     0.38021   0.77201   0.11980   0.00000  Uiso   1.00
H341   H     0.88020   0.38021   0.22799   0.00000  Uiso   1.00
H342   H     0.88020   0.61979   0.77201   0.00000  Uiso   1.00
H343   H     0.11980   0.61979   0.22799   0.00000  Uiso   1.00
H344   H     0.11980   0.38021   0.77201   0.00000  Uiso   1.00
H345   H     0.22799   0.88020   0.38021   0.00000  Uiso   1.00
H346   H     0.77201   0.88020   0.61979   0.00000  Uiso   1.00
H347   H     0.22799   0.11980   0.61979   0.00000  Uiso   1.00
H348   H     0.77201   0.11980   0.38021   0.00000  Uiso   1.00
H349   H     0.22799   0.38021   0.11980   0.00000  Uiso   1.00
H350   H     0.77201   0.61979   0.11980   0.00000  Uiso   1.00
H351   H     0.22799   0.61979   0.88020   0.00000  Uiso   1.00
H352   H     0.77201   0.38021   0.88020   0.00000  Uiso   1.00
H353   H     0.38021   0.88020   0.77201   0.00000  Uiso   1.00
H354   H     0.61979   0.88020   0.22799   0.00000  Uiso   1.00
H355   H     0.61979   0.11980   0.77201   0.00000  Uiso   1.00
H356   H     0.38021   0.11980   0.22799   0.00000  Uiso   1.00
H357   H     0.88020   0.22799   0.61979   0.00000  Uiso   1.00
H358   H     0.88020   0.77201   0.38021   0.00000  Uiso   1.00
H359   H     0.11980   0.22799   0.38021   0.00000  Uiso   1.00
H360   H     0.11980   0.77201   0.61979   0.00000  Uiso   1.00
H361   H     0.61979   0.77201   0.11980   0.00000  Uiso   1.00
H362   H     0.38021   0.22799   0.11980   0.00000  Uiso   1.00
H363   H     0.38021   0.77201   0.88020   0.00000  Uiso   1.00
H364   H     0.61979   0.22799   0.88020   0.00000  Uiso   1.00
H365   H     0.11980   0.61979   0.77201   0.00000  Uiso   1.00
H366   H     0.11980   0.38021   0.22799   0.00000  Uiso   1.00
H367   H     0.88020   0.38021   0.77201   0.00000  Uiso   1.00
H368   H     0.88020   0.61979   0.22799   0.00000  Uiso   1.00
H369   H     0.77201   0.11980   0.61979   0.00000  Uiso   1.00
H370   H     0.22799   0.11980   0.38021   0.00000  Uiso   1.00
H371   H     0.77201   0.88020   0.38021   0.00000  Uiso   1.00
H372   H     0.22799   0.88020   0.61979   0.00000  Uiso   1.00
H373   H     0.77201   0.61979   0.88020   0.00000  Uiso   1.00
H374   H     0.22799   0.38021   0.88020   0.00000  Uiso   1.00
H375   H     0.77201   0.38021   0.11980   0.00000  Uiso   1.00
H376   H     0.22799   0.61979   0.11980   0.00000  Uiso   1.00
H377   H     0.61979   0.11980   0.22799   0.00000  Uiso   1.00
H378   H     0.38021   0.11980   0.77201   0.00000  Uiso   1.00
H379   H     0.38021   0.88020   0.22799   0.00000  Uiso   1.00
H380   H     0.61979   0.88020   0.77201   0.00000  Uiso   1.00
H381   H     0.11980   0.77201   0.38021   0.00000  Uiso   1.00
H382   H     0.11980   0.22799   0.61979   0.00000  Uiso   1.00
H383   H     0.88020   0.77201   0.61979   0.00000  Uiso   1.00
H384   H     0.88020   0.22799   0.38021   0.00000  Uiso   1.00
H385   H     0.38021   0.72801   0.38021   0.00000  Uiso   1.00
H386   H     0.61979   0.27199   0.38021   0.00000  Uiso   1.00
H387   H     0.61979   0.72801   0.61979   0.00000  Uiso   1.00
H388   H     0.38021   0.27199   0.61979   0.00000  Uiso   1.00
H389   H     0.88020   0.88020   0.72801   0.00000  Uiso   1.00
H390   H     0.88020   0.11980   0.27199   0.00000  Uiso   1.00
H391   H     0.11980   0.11980   0.72801   0.00000  Uiso   1.00
H392   H     0.11980   0.88020   0.27199   0.00000  Uiso   1.00
H393   H     0.38021   0.38021   0.27199   0.00000  Uiso   1.00
H394   H     0.61979   0.38021   0.72801   0.00000  Uiso   1.00
H395   H     0.61979   0.61979   0.27199   0.00000  Uiso   1.00
H396   H     0.38021   0.61979   0.72801   0.00000  Uiso   1.00
H397   H     0.88020   0.72801   0.11980   0.00000  Uiso   1.00
H398   H     0.88020   0.27199   0.88020   0.00000  Uiso   1.00
H399   H     0.11980   0.72801   0.88020   0.00000  Uiso   1.00
H400   H     0.11980   0.27199   0.11980   0.00000  Uiso   1.00
H401   H     0.61979   0.27199   0.61979   0.00000  Uiso   1.00
H402   H     0.38021   0.72801   0.61979   0.00000  Uiso   1.00
H403   H     0.38021   0.27199   0.38021   0.00000  Uiso   1.00
H404   H     0.61979   0.72801   0.38021   0.00000  Uiso   1.00
H405   H     0.11980   0.11980   0.27199   0.00000  Uiso   1.00
H406   H     0.11980   0.88020   0.72801   0.00000  Uiso   1.00
H407   H     0.88020   0.88020   0.27199   0.00000  Uiso   1.00
H408   H     0.88020   0.11980   0.72801   0.00000  Uiso   1.00
H409   H     0.61979   0.61979   0.72801   0.00000  Uiso   1.00
H410   H     0.38021   0.61979   0.27199   0.00000  Uiso   1.00
H411   H     0.38021   0.38021   0.72801   0.00000  Uiso   1.00
H412   H     0.61979   0.38021   0.27199   0.00000  Uiso   1.00
H413   H     0.11980   0.27199   0.88020   0.00000  Uiso   1.00
H414   H     0.11980   0.72801   0.11980   0.00000  Uiso   1.00
H415   H     0.88020   0.27199   0.11980   0.00000  Uiso   1.00
H416   H     0.88020   0.72801   0.88020   0.00000  Uiso   1.00
H417   H     0.72801   0.88020   0.88020   0.00000  Uiso   1.00
H418   H     0.27199   0.88020   0.11980   0.00000  Uiso   1.00
H419   H     0.72801   0.11980   0.11980   0.00000  Uiso   1.00
H420   H     0.27199   0.11980   0.88020   0.00000  Uiso   1.00
H421   H     0.72801   0.38021   0.61979   0.00000  Uiso   1.00
H422   H     0.27199   0.61979   0.61979   0.00000  Uiso   1.00
H423   H     0.72801   0.61979   0.38021   0.00000  Uiso   1.00
H424   H     0.27199   0.38021   0.38021   0.00000  Uiso   1.00
H425   H     0.27199   0.11980   0.11980   0.00000  Uiso   1.00
H426   H     0.72801   0.11980   0.88020   0.00000  Uiso   1.00
H427   H     0.27199   0.88020   0.88020   0.00000  Uiso   1.00
H428   H     0.72801   0.88020   0.11980   0.00000  Uiso   1.00
H429   H     0.27199   0.61979   0.38021   0.00000  Uiso   1.00
H430   H     0.72801   0.38021   0.38021   0.00000  Uiso   1.00
H431   H     0.27199   0.38021   0.61979   0.00000  Uiso   1.00
H432   H     0.72801   0.61979   0.61979   0.00000  Uiso   1.00
H433   H     0.32659   0.56221   0.75308   0.00000  Uiso   1.00
O433   O     0.31659   0.24310   0.94780   0.00000  Uiso   1.00
O434   O     0.68341   0.75690   0.94780   0.00000  Uiso   1.00
O435   O     0.68341   0.24310   0.05220   0.00000  Uiso   1.00
O436   O     0.31659   0.75690   0.05220   0.00000  Uiso   1.00
O437   O     0.94780   0.31659   0.24310   0.00000  Uiso   1.00
O438   O     0.94780   0.68341   0.75690   0.00000  Uiso   1.00
O439   O     0.05220   0.68341   0.24310   0.00000  Uiso   1.00
O440   O     0.05220   0.31659   0.75690   0.00000  Uiso   1.00
O441   O     0.24310   0.94780   0.31659   0.00000  Uiso   1.00
O442   O     0.75690   0.94780   0.68341   0.00000  Uiso   1.00
O443   O     0.24310   0.05220   0.68341   0.00000  Uiso   1.00
O444   O     0.75690   0.05220   0.31659   0.00000  Uiso   1.00
O445   O     0.24310   0.31659   0.05220   0.00000  Uiso   1.00
O446   O     0.75690   0.68341   0.05220   0.00000  Uiso   1.00
O447   O     0.24310   0.68341   0.94780   0.00000  Uiso   1.00
O448   O     0.75690   0.31659   0.94780   0.00000  Uiso   1.00
O449   O     0.31659   0.94780   0.75690   0.00000  Uiso   1.00
O450   O     0.68341   0.94780   0.24310   0.00000  Uiso   1.00
O451   O     0.68341   0.05220   0.75690   0.00000  Uiso   1.00
O452   O     0.31659   0.05220   0.24310   0.00000  Uiso   1.00
O453   O     0.94780   0.24310   0.68341   0.00000  Uiso   1.00
O454   O     0.94780   0.75690   0.31659   0.00000  Uiso   1.00
O455   O     0.05220   0.24310   0.31659   0.00000  Uiso   1.00
O456   O     0.05220   0.75690   0.68341   0.00000  Uiso   1.00
O457   O     0.68341   0.75690   0.05220   0.00000  Uiso   1.00
O458   O     0.31659   0.24310   0.05220   0.00000  Uiso   1.00
O459   O     0.31659   0.75690   0.94780   0.00000  Uiso   1.00
O460   O     0.68341   0.24310   0.94780   0.00000  Uiso   1.00
O461   O     0.05220   0.68341   0.75690   0.00000  Uiso   1.00
O462   O     0.05220   0.31659   0.24310   0.00000  Uiso   1.00
O463   O     0.94780   0.31659   0.75690   0.00000  Uiso   1.00
O464   O     0.94780   0.68341   0.24310   0.00000  Uiso   1.00
O465   O     0.75690   0.05220   0.68341   0.00000  Uiso   1.00
O466   O     0.24310   0.05220   0.31659   0.00000  Uiso   1.00
O467   O     0.75690   0.94780   0.31659   0.00000  Uiso   1.00
O468   O     0.24310   0.94780   0.68341   0.00000  Uiso   1.00
O469   O     0.75690   0.68341   0.94780   0.00000  Uiso   1.00
O470   O     0.24310   0.31659   0.94780   0.00000  Uiso   1.00
O471   O     0.75690   0.31659   0.05220   0.00000  Uiso   1.00
O472   O     0.24310   0.68341   0.05220   0.00000  Uiso   1.00
O473   O     0.68341   0.05220   0.24310   0.00000  Uiso   1.00
O474   O     0.31659   0.05220   0.75690   0.00000  Uiso   1.00
O475   O     0.31659   0.94780   0.24310   0.00000  Uiso   1.00
O476   O     0.68341   0.94780   0.75690   0.00000  Uiso   1.00
O477   O     0.05220   0.75690   0.31659   0.00000  Uiso   1.00
O478   O     0.05220   0.24310   0.68341   0.00000  Uiso   1.00
O479   O     0.94780   0.75690   0.68341   0.00000  Uiso   1.00
O480   O     0.94780   0.24310   0.31659   0.00000  Uiso   1.00
O481   O     0.31659   0.74308   0.44778   0.00000  Uiso   1.00
O482   O     0.68341   0.25692   0.44778   0.00000  Uiso   1.00
O483   O     0.68341   0.74308   0.55221   0.00000  Uiso   1.00
O484   O     0.31659   0.25692   0.55221   0.00000  Uiso   1.00
O485   O     0.94780   0.81661   0.74308   0.00000  Uiso   1.00
O486   O     0.94780   0.18339   0.25692   0.00000  Uiso   1.00
O487   O     0.05220   0.18339   0.74308   0.00000  Uiso   1.00
O488   O     0.05220   0.81661   0.25692   0.00000  Uiso   1.00
O489   O     0.24310   0.44778   0.81661   0.00000  Uiso   1.00
O490   O     0.75690   0.44778   0.18339   0.00000  Uiso   1.00
O491   O     0.24310   0.55221   0.18339   0.00000  Uiso   1.00
O492   O     0.75690   0.55221   0.81661   0.00000  Uiso   1.00
O493   O     0.24310   0.81661   0.55221   0.00000  Uiso   1.00
O494   O     0.75690   0.18339   0.55221   0.00000  Uiso   1.00
O495   O     0.24310   0.18339   0.44778   0.00000  Uiso   1.00
O496   O     0.75690   0.81661   0.44778   0.00000  Uiso   1.00
O497   O     0.31659   0.44778   0.25692   0.00000  Uiso   1.00
O498   O     0.68341   0.44778   0.74308   0.00000  Uiso   1.00
O499   O     0.68341   0.55221   0.25692   0.00000  Uiso   1.00
O500   O     0.31659   0.55221   0.74308   0.00000  Uiso   1.00
O501   O     0.94780   0.74308   0.18339   0.00000  Uiso   1.00
O502   O     0.94780   0.25692   0.81661   0.00000  Uiso   1.00
O503   O     0.05220   0.74308   0.81661   0.00000  Uiso   1.00
O504   O     0.05220   0.25692   0.18339   0.00000  Uiso   1.00
O505   O     0.68341   0.25692   0.55221   0.00000  Uiso   1.00
O506   O     0.31659   0.74308   0.55221   0.00000  Uiso   1.00
O507   O     0.31659   0.25692   0.44778   0.00000  Uiso   1.00
O508   O     0.68341   0.74308   0.44778   0.00000  Uiso   1.00
O509   O     0.05220   0.18339   0.25692   0.00000  Uiso   1.00
O510   O     0.05220   0.81661   0.74308   0.00000  Uiso   1.00
O511   O     0.94780   0.81661   0.25692   0.00000  Uiso   1.00
O512   O     0.94780   0.18339   0.74308   0.00000  Uiso   1.00
O513   O     0.75690   0.55221   0.18339   0.00000  Uiso   1.00
O514   O     0.24310   0.55221   0.81661   0.00000  Uiso   1.00
O515   O     0.75690   0.44778   0.81661   0.00000  Uiso   1.00
O516   O     0.24310   0.44778   0.18339   0.00000  Uiso   1.00
O517   O     0.75690   0.18339   0.44778   0.00000  Uiso   1.00
O518   O     0.24310   0.81661   0.44778   0.00000  Uiso   1.00
O519   O     0.75690   0.81661   0.55221   0.00000  Uiso   1.00
O520   O     0.24310   0.18339   0.55221   0.00000  Uiso   1.00
O521   O     0.68341   0.55221   0.74308   0.00000  Uiso   1.00
O522   O     0.31659   0.55221   0.25692   0.00000  Uiso   1.00
O523   O     0.31659   0.44778   0.74308   0.00000  Uiso   1.00
O524   O     0.68341   0.44778   0.25692   0.00000  Uiso   1.00
O525   O     0.05220   0.25692   0.81661   0.00000  Uiso   1.00
O526   O     0.05220   0.74308   0.18339   0.00000  Uiso   1.00
O527   O     0.94780   0.25692   0.18339   0.00000  Uiso   1.00
O528   O     0.94780   0.74308   0.81661   0.00000  Uiso   1.00
O529   O     0.81661   0.24310   0.44778   0.00000  Uiso   1.00
O530   O     0.18339   0.75690   0.44778   0.00000  Uiso   1.00
O531   O     0.18339   0.24310   0.55221   0.00000  Uiso   1.00
O532   O     0.81661   0.75690   0.55221   0.00000  Uiso   1.00
O533   O     0.44778   0.31659   0.74308   0.00000  Uiso   1.00
O534   O     0.44778   0.68341   0.25692   0.00000  Uiso   1.00
O535   O     0.55221   0.68341   0.74308   0.00000  Uiso   1.00
O536   O     0.55221   0.31659   0.25692   0.00000  Uiso   1.00
O537   O     0.74308   0.94780   0.81661   0.00000  Uiso   1.00
O538   O     0.25692   0.94780   0.18339   0.00000  Uiso   1.00
O539   O     0.74308   0.05220   0.18339   0.00000  Uiso   1.00
O540   O     0.25692   0.05220   0.81661   0.00000  Uiso   1.00
O541   O     0.74308   0.31659   0.55221   0.00000  Uiso   1.00
O542   O     0.25692   0.68341   0.55221   0.00000  Uiso   1.00
O543   O     0.74308   0.68341   0.44778   0.00000  Uiso   1.00
O544   O     0.25692   0.31659   0.44778   0.00000  Uiso   1.00
O545   O     0.81661   0.94780   0.25692   0.00000  Uiso   1.00
O546   O     0.18339   0.94780   0.74308   0.00000  Uiso   1.00
O547   O     0.18339   0.05220   0.25692   0.00000  Uiso   1.00
O548   O     0.81661   0.05220   0.74308   0.00000  Uiso   1.00
O549   O     0.44778   0.24310   0.18339   0.00000  Uiso   1.00
O550   O     0.44778   0.75690   0.81661   0.00000  Uiso   1.00
O551   O     0.55221   0.24310   0.81661   0.00000  Uiso   1.00
O552   O     0.55221   0.75690   0.18339   0.00000  Uiso   1.00
O553   O     0.18339   0.75690   0.55221   0.00000  Uiso   1.00
O554   O     0.81661   0.24310   0.55221   0.00000  Uiso   1.00
O555   O     0.81661   0.75690   0.44778   0.00000  Uiso   1.00
O556   O     0.18339   0.24310   0.44778   0.00000  Uiso   1.00
O557   O     0.55221   0.68341   0.25692   0.00000  Uiso   1.00
O558   O     0.55221   0.31659   0.74308   0.00000  Uiso   1.00
O559   O     0.44778   0.31659   0.25692   0.00000  Uiso   1.00
O560   O     0.44778   0.68341   0.74308   0.00000  Uiso   1.00
O561   O     0.25692   0.05220   0.18339   0.00000  Uiso   1.00
O562   O     0.74308   0.05220   0.81661   0.00000  Uiso   1.00
O563   O     0.25692   0.94780   0.81661   0.00000  Uiso   1.00
O564   O     0.74308   0.94780   0.18339   0.00000  Uiso   1.00
O565   O     0.25692   0.68341   0.44778   0.00000  Uiso   1.00
O566   O     0.74308   0.31659   0.44778   0.00000  Uiso   1.00
O567   O     0.25692   0.31659   0.55221   0.00000  Uiso   1.00
O568   O     0.74308   0.68341   0.55221   0.00000  Uiso   1.00
O569   O     0.18339   0.05220   0.74308   0.00000  Uiso   1.00
O570   O     0.81661   0.05220   0.25692   0.00000  Uiso   1.00
O571   O     0.81661   0.94780   0.74308   0.00000  Uiso   1.00
O572   O     0.18339   0.94780   0.25692   0.00000  Uiso   1.00
O573   O     0.55221   0.75690   0.81661   0.00000  Uiso   1.00
O574   O     0.55221   0.24310   0.18339   0.00000  Uiso   1.00
O575   O     0.44778   0.75690   0.18339   0.00000  Uiso   1.00
O576   O     0.44778   0.24310   0.81661   0.00000  Uiso   1.00
O577   O     0.81661   0.74308   0.94780   0.00000  Uiso   1.00
O578   O     0.18339   0.25692   0.94780   0.00000  Uiso   1.00
O579   O     0.18339   0.74308   0.05220   0.00000  Uiso   1.00
O580   O     0.81661   0.25692   0.05220   0.00000  Uiso   1.00
O581   O     0.44778   0.81661   0.24310   0.00000  Uiso   1.00
O582   O     0.44778   0.18339   0.75690   0.00000  Uiso   1.00
O583   O     0.55221   0.18339   0.24310   0.00000  Uiso   1.00
O584   O     0.55221   0.81661   0.75690   0.00000  Uiso   1.00
O585   O     0.74308   0.44778   0.31659   0.00000  Uiso   1.00
O586   O     0.25692   0.44778   0.68341   0.00000  Uiso   1.00
O587   O     0.74308   0.55221   0.68341   0.00000  Uiso   1.00
O588   O     0.25692   0.55221   0.31659   0.00000  Uiso   1.00
O589   O     0.74308   0.81661   0.05220   0.00000  Uiso   1.00
O590   O     0.25692   0.18339   0.05220   0.00000  Uiso   1.00
O591   O     0.74308   0.18339   0.94780   0.00000  Uiso   1.00
O592   O     0.25692   0.81661   0.94780   0.00000  Uiso   1.00
O593   O     0.81661   0.44778   0.75690   0.00000  Uiso   1.00
O594   O     0.18339   0.44778   0.24310   0.00000  Uiso   1.00
O595   O     0.18339   0.55221   0.75690   0.00000  Uiso   1.00
O596   O     0.81661   0.55221   0.24310   0.00000  Uiso   1.00
O597   O     0.44778   0.74308   0.68341   0.00000  Uiso   1.00
O598   O     0.44778   0.25692   0.31659   0.00000  Uiso   1.00
O599   O     0.55221   0.74308   0.31659   0.00000  Uiso   1.00
O600   O     0.55221   0.25692   0.68341   0.00000  Uiso   1.00
O601   O     0.18339   0.25692   0.05220   0.00000  Uiso   1.00
O602   O     0.81661   0.74308   0.05220   0.00000  Uiso   1.00
O603   O     0.81661   0.25692   0.94780   0.00000  Uiso   1.00
O604   O     0.18339   0.74308   0.94780   0.00000  Uiso   1.00
O605   O     0.55221   0.18339   0.75690   0.00000  Uiso   1.00
O606   O     0.55221   0.81661   0.24310   0.00000  Uiso   1.00
O607   O     0.44778   0.81661   0.75690   0.00000  Uiso   1.00
O608   O     0.44778   0.18339   0.24310   0.00000  Uiso   1.00
O609   O     0.25692   0.55221   0.68341   0.00000  Uiso   1.00
O610   O     0.74308   0.55221   0.31659   0.00000  Uiso   1.00
O611   O     0.25692   0.44778   0.31659   0.00000  Uiso   1.00
O612   O     0.74308   0.44778   0.68341   0.00000  Uiso   1.00
O613   O     0.25692   0.18339   0.94780   0.00000  Uiso   1.00
O614   O     0.74308   0.81661   0.94780   0.00000  Uiso   1.00
O615   O     0.25692   0.81661   0.05220   0.00000  Uiso   1.00
O616   O     0.74308   0.18339   0.05220   0.00000  Uiso   1.00
O617   O     0.18339   0.55221   0.24310   0.00000  Uiso   1.00
O618   O     0.81661   0.55221   0.75690   0.00000  Uiso   1.00
O619   O     0.81661   0.44778   0.24310   0.00000  Uiso   1.00
O620   O     0.18339   0.44778   0.75690   0.00000  Uiso   1.00
O621   O     0.55221   0.25692   0.31659   0.00000  Uiso   1.00
O622   O     0.55221   0.74308   0.68341   0.00000  Uiso   1.00
O623   O     0.44778   0.25692   0.68341   0.00000  Uiso   1.00
O624   O     0.44778   0.74308   0.31659   0.00000  Uiso   1.00
loop_
_geom_bond_atom_site_label_1
_geom_bond_atom_site_label_2
_geom_bond_distance
_geom_bond_site_symmetry_2
_ccdc_geom_bond_type
C1     C97     1.497   .     S
C1     C193    1.397   .     D
C1     C276    1.397   .     S
C2     C98     1.497   .     S
C2     C194    1.397   .     D
C2     C273    1.397   .     S
C3     C99     1.497   .     S
C3     C195    1.397   .     D
C3     C275    1.397   .     S
C4     C100    1.497   .     S
C4     C196    1.397   .     D
C4     C274    1.397   .     S
C5     C101    1.497   .     S
C5     C197    1.397   .     D
C5     C271    1.397   .     S
C6     C102    1.497   .     S
C6     C198    1.397   .     S
C6     C272    1.397   .     D
C7     C103    1.497   .     S
C7     C199    1.397   .     D
C7     C270    1.397   .     S
C8     C104    1.497   .     S
C8     C200    1.397   .     S
C8     C269    1.397   .     D
C9     C105    1.497   .     S
C9     C201    1.397   .     D
C9     C248    1.397   .     S
C10    C106    1.497   .     S
C10    C202    1.397   .     D
C10    C245    1.397   .     S
C11    C107    1.497   .     S
C11    C203    1.397   .     D
C11    C247    1.397   .     S
C12    C108    1.497   .     S
C12    C204    1.397   .     D
C12    C246    1.397   .     S
C13    C109    1.497   .     S
C13    C205    1.397   .     D
C13    C256    1.397   .     S
C14    C110    1.497   .     S
C14    C206    1.397   .     D
C14    C253    1.397   .     S
C15    C111    1.497   .     S
C15    C207    1.397   .     D
C15    C255    1.397   .     S
C16    C112    1.497   .     S
C16    C208    1.397   .     D
C16    C254    1.397   .     S
C17    C113    1.497   .     S
C17    C209    1.397   .     S
C17    C283    1.397   .     D
C18    C114    1.497   .     S
C18    C210    1.397   .     D
C18    C284    1.397   .     S
C19    C115    1.497   .     S
C19    C211    1.397   .     S
C19    C282    1.397   .     D
C20    C116    1.497   .     S
C20    C212    1.397   .     D
C20    C281    1.397   .     S
C21    C117    1.497   .     S
C21    C213    1.397   .     D
C21    C264    1.397   .     S
C22    C118    1.497   .     S
C22    C214    1.397   .     S
C22    C263    1.397   .     D
C23    C119    1.497   .     S
C23    C215    1.397   .     D
C23    C261    1.397   .     S
C24    C120    1.497   .     S
C24    C216    1.397   .     S
C24    C262    1.397   .     D
C25    C121    1.497   .     S
C25    C217    1.397   .     S
C25    C284    1.397   .     D
C26    C122    1.497   .     S
C26    C218    1.397   .     S
C26    C281    1.397   .     D
C27    C123    1.497   .     S
C27    C219    1.397   .     D
C27    C283    1.397   .     S
C28    C124    1.497   .     S
C28    C220    1.397   .     D
C28    C282    1.397   .     S
C29    C125    1.497   .     S
C29    C221    1.397   .     S
C29    C255    1.397   .     D
C30    C126    1.497   .     S
C30    C222    1.397   .     S
C30    C256    1.397   .     D
C31    C127    1.497   .     S
C31    C223    1.397   .     S
C31    C254    1.397   .     D
C32    C128    1.497   .     S
C32    C224    1.397   .     S
C32    C253    1.397   .     D
C33    C129    1.497   .     S
C33    C225    1.397   .     S
C33    C264    1.397   .     D
C34    C130    1.497   .     S
C34    C226    1.397   .     S
C34    C261    1.397   .     D
C35    C131    1.497   .     S
C35    C227    1.397   .     D
C35    C263    1.397   .     S
C36    C132    1.497   .     S
C36    C228    1.397   .     D
C36    C262    1.397   .     S
C37    C133    1.497   .     S
C37    C229    1.397   .     D
C37    C272    1.397   .     S
C38    C134    1.497   .     S
C38    C230    1.397   .     D
C38    C269    1.397   .     S
C39    C135    1.497   .     S
C39    C231    1.397   .     S
C39    C271    1.397   .     D
C40    C136    1.497   .     S
C40    C232    1.397   .     S
C40    C270    1.397   .     D
C41    C137    1.497   .     S
C41    C233    1.397   .     S
C41    C275    1.397   .     D
C42    C138    1.497   .     S
C42    C234    1.397   .     S
C42    C276    1.397   .     D
C43    C139    1.497   .     S
C43    C235    1.397   .     S
C43    C274    1.397   .     D
C44    C140    1.497   .     S
C44    C236    1.397   .     S
C44    C273    1.397   .     D
C45    C141    1.497   .     S
C45    C237    1.397   .     S
C45    C248    1.397   .     D
C46    C142    1.497   .     S
C46    C238    1.397   .     S
C46    C247    1.397   .     D
C47    C143    1.497   .     S
C47    C239    1.397   .     S
C47    C245    1.397   .     D
C48    C144    1.497   .     S
C48    C240    1.397   .     S
C48    C246    1.397   .     D
C49    C145    1.497   .     S
C49    C241    1.397   .     D
C49    C285    1.397   .     S
C50    C146    1.497   .     S
C50    C242    1.397   .     D
C50    C286    1.397   .     S
C51    C147    1.497   .     S
C51    C243    1.397   .     S
C51    C288    1.397   .     D
C52    C148    1.497   .     S
C52    C244    1.397   .     S
C52    C287    1.397   .     D
C53    C149    1.498   .     S
C53    C200    1.397   .     D
C53    C230    1.397   .     S
C54    C150    1.498   .     S
C54    C197    1.397   .     S
C54    C231    1.397   .     D
C55    C151    1.498   .     S
C55    C199    1.397   .     S
C55    C232    1.397   .     D
C56    C152    1.498   .     S
C56    C198    1.397   .     D
C56    C229    1.397   .     S
C57    C153    1.498   .     S
C57    C216    1.397   .     D
C57    C228    1.397   .     S
C58    C154    1.498   .     S
C58    C213    1.397   .     S
C58    C225    1.397   .     D
C59    C155    1.498   .     S
C59    C215    1.397   .     S
C59    C226    1.397   .     D
C60    C156    1.498   .     S
C60    C214    1.397   .     D
C60    C227    1.397   .     S
C61    C157    1.497   .     S
C61    C249    1.397   .     D
C61    C280    1.397   .     S
C62    C158    1.497   .     S
C62    C250    1.397   .     S
C62    C277    1.397   .     D
C63    C159    1.497   .     S
C63    C251    1.397   .     D
C63    C279    1.397   .     S
C64    C160    1.497   .     S
C64    C252    1.397   .     S
C64    C278    1.397   .     D
C65    C161    1.497   .     S
C65    C257    1.397   .     D
C65    C277    1.397   .     S
C66    C162    1.497   .     S
C66    C258    1.397   .     D
C66    C278    1.397   .     S
C67    C163    1.497   .     S
C67    C259    1.397   .     S
C67    C280    1.397   .     D
C68    C164    1.497   .     S
C68    C260    1.397   .     S
C68    C279    1.397   .     D
C69    C165    1.498   .     S
C69    C206    1.397   .     S
C69    C224    1.397   .     D
C70    C166    1.498   .     S
C70    C207    1.397   .     S
C70    C221    1.397   .     D
C71    C167    1.498   .     S
C71    C208    1.397   .     S
C71    C223    1.397   .     D
C72    C168    1.498   .     S
C72    C205    1.397   .     S
C72    C222    1.397   .     D
C73    C169    1.498   .     S
C73    C204    1.397   .     S
C73    C240    1.397   .     D
C74    C170    1.498   .     S
C74    C201    1.397   .     S
C74    C237    1.397   .     D
C75    C171    1.498   .     S
C75    C202    1.397   .     S
C75    C239    1.397   .     D
C76    C172    1.498   .     S
C76    C203    1.397   .     S
C76    C238    1.397   .     D
C77    C173    1.497   .     S
C77    C265    1.397   .     D
C77    C288    1.397   .     S
C78    C174    1.497   .     S
C78    C266    1.397   .     S
C78    C285    1.397   .     D
C79    C175    1.497   .     S
C79    C267    1.397   .     D
C79    C287    1.397   .     S
C80    C176    1.497   .     S
C80    C268    1.397   .     S
C80    C286    1.397   .     D
C81    C177    1.497   .     S
C81    C244    1.397   .     D
C81    C267    1.397   .     S
C82    C178    1.497   .     S
C82    C241    1.397   .     S
C82    C266    1.397   .     D
C83    C179    1.497   .     S
C83    C243    1.397   .     D
C83    C265    1.397   .     S
C84    C180    1.497   .     S
C84    C242    1.397   .     S
C84    C268    1.397   .     D
C85    C181    1.498   .     S
C85    C212    1.397   .     S
C85    C218    1.397   .     D
C86    C182    1.498   .     S
C86    C209    1.397   .     D
C86    C219    1.397   .     S
C87    C183    1.498   .     S
C87    C211    1.397   .     D
C87    C220    1.397   .     S
C88    C184    1.498   .     S
C88    C210    1.397   .     S
C88    C217    1.397   .     D
C89    C185    1.497   .     S
C89    C251    1.397   .     S
C89    C260    1.397   .     D
C90    C186    1.497   .     S
C90    C250    1.397   .     D
C90    C257    1.397   .     S
C91    C187    1.497   .     S
C91    C249    1.397   .     S
C91    C259    1.397   .     D
C92    C188    1.497   .     S
C92    C252    1.397   .     D
C92    C258    1.397   .     S
C93    C189    1.498   .     S
C93    C194    1.397   .     S
C93    C236    1.397   .     D
C94    C190    1.498   .     S
C94    C195    1.397   .     S
C94    C233    1.397   .     D
C95    C191    1.498   .     S
C95    C196    1.397   .     S
C95    C235    1.397   .     D
C96    C192    1.498   .     S
C96    C193    1.397   .     S
C96    C234    1.397   .     D
C97    O433    1.251   .     S
C97    O613    1.252   .     D
C98    O434    1.251   .     S
C98    O614    1.252   .     D
C99    O435    1.251   .     S
C99    O616    1.252   .     D
C100   O436    1.251   .     S
C100   O615    1.252   .     D
C101   O437    1.251   .     D
C101   O527    1.252   .     S
C102   O438    1.251   .     D
C102   O528    1.252   .     S
C103   O439    1.251   .     D
C103   O526    1.252   .     S
C104   O440    1.251   .     D
C104   O525    1.252   .     S
C105   O441    1.251   .     S
C105   O572    1.252   .     D
C106   O442    1.251   .     S
C106   O571    1.252   .     D
C107   O443    1.251   .     S
C107   O569    1.252   .     D
C108   O444    1.251   .     S
C108   O570    1.252   .     D
C109   O445    1.251   .     S
C109   O601    1.252   .     D
C110   O446    1.251   .     S
C110   O602    1.252   .     D
C111   O447    1.251   .     S
C111   O604    1.252   .     D
C112   O448    1.251   .     S
C112   O603    1.252   .     D
C113   O449    1.251   .     D
C113   O563    1.252   .     S
C114   O450    1.251   .     D
C114   O564    1.252   .     S
C115   O451    1.251   .     D
C115   O562    1.252   .     S
C116   O452    1.251   .     D
C116   O561    1.252   .     S
C117   O453    1.251   .     D
C117   O512    1.252   .     S
C118   O454    1.251   .     D
C118   O511    1.252   .     S
C119   O455    1.251   .     D
C119   O509    1.252   .     S
C120   O456    1.251   .     D
C120   O510    1.252   .     S
C121   O457    1.251   .     D
C121   O589    1.252   .     S
C122   O458    1.251   .     D
C122   O590    1.252   .     S
C123   O459    1.251   .     D
C123   O592    1.252   .     S
C124   O460    1.251   .     D
C124   O591    1.252   .     S
C125   O461    1.251   .     D
C125   O503    1.252   .     S
C126   O462    1.251   .     D
C126   O504    1.252   .     S
C127   O463    1.251   .     D
C127   O502    1.252   .     S
C128   O464    1.251   .     D
C128   O501    1.252   .     S
C129   O465    1.251   .     D
C129   O548    1.252   .     S
C130   O466    1.251   .     D
C130   O547    1.252   .     S
C131   O467    1.251   .     D
C131   O545    1.252   .     S
C132   O468    1.251   .     D
C132   O546    1.252   .     S
C133   O469    1.251   .     D
C133   O577    1.252   .     S
C134   O470    1.251   .     D
C134   O578    1.252   .     S
C135   O471    1.251   .     D
C135   O580    1.252   .     S
C136   O472    1.251   .     D
C136   O579    1.252   .     S
C137   O473    1.251   .     D
C137   O539    1.252   .     S
C138   O474    1.251   .     D
C138   O540    1.252   .     S
C139   O475    1.251   .     D
C139   O538    1.252   .     S
C140   O476    1.251   .     D
C140   O537    1.252   .     S
C141   O477    1.251   .     D
C141   O488    1.252   .     S
C142   O478    1.251   .     D
C142   O487    1.252   .     S
C143   O479    1.251   .     D
C143   O485    1.252   .     S
C144   O480    1.251   .     D
C144   O486    1.252   .     S
C145   O481    1.251   .     D
C145   O565    1.251   .     S
C146   O482    1.251   .     D
C146   O566    1.251   .     S
C147   O483    1.251   .     D
C147   O568    1.251   .     S
C148   O484    1.251   .     D
C148   O567    1.251   .     S
C149   O489    1.251   .     S
C149   O620    1.251   .     D
C150   O490    1.251   .     S
C150   O619    1.251   .     D
C151   O491    1.251   .     S
C151   O617    1.251   .     D
C152   O492    1.251   .     S
C152   O618    1.251   .     D
C153   O493    1.251   .     S
C153   O553    1.251   .     D
C154   O494    1.251   .     S
C154   O554    1.251   .     D
C155   O495    1.251   .     S
C155   O556    1.251   .     D
C156   O496    1.251   .     S
C156   O555    1.251   .     D
C157   O497    1.251   .     S
C157   O611    1.251   .     D
C158   O498    1.251   .     S
C158   O612    1.251   .     D
C159   O499    1.251   .     S
C159   O610    1.251   .     D
C160   O500    1.251   .     S
C160   O609    1.251   .     D
C161   O505    1.251   .     D
C161   O541    1.251   .     S
C162   O506    1.251   .     D
C162   O542    1.251   .     S
C163   O507    1.251   .     D
C163   O544    1.251   .     S
C164   O508    1.251   .     D
C164   O543    1.251   .     S
C165   O513    1.251   .     D
C165   O596    1.251   .     S
C166   O514    1.251   .     D
C166   O595    1.251   .     S
C167   O515    1.251   .     D
C167   O593    1.251   .     S
C168   O516    1.251   .     D
C168   O594    1.251   .     S
C169   O517    1.251   .     D
C169   O529    1.251   .     S
C170   O518    1.251   .     D
C170   O530    1.251   .     S
C171   O519    1.251   .     D
C171   O532    1.251   .     S
C172   O520    1.251   .     D
C172   O531    1.251   .     S
C173   O521    1.251   .     D
C173   O587    1.251   .     S
C174   O522    1.251   .     D
C174   O588    1.251   .     S
C175   O523    1.251   .     D
C175   O586    1.251   .     S
C176   O524    1.251   .     D
C176   O585    1.251   .     S
C177   O533    1.251   .     S
C177   O623    1.251   .     D
C178   O534    1.251   .     S
C178   O624    1.251   .     D
C179   O535    1.251   .     S
C179   O622    1.251   .     D
C180   O536    1.251   .     S
C180   O621    1.251   .     D
C181   O549    1.251   .     S
C181   O608    1.251   .     D
C182   O550    1.251   .     S
C182   O607    1.251   .     D
C183   O551    1.251   .     S
C183   O605    1.251   .     D
C184   O552    1.251   .     S
C184   O606    1.251   .     D
C185   O557    1.251   .     D
C185   O599    1.251   .     S
C186   O558    1.251   .     D
C186   O600    1.251   .     S
C187   O559    1.251   .     D
C187   O598    1.251   .     S
C188   O560    1.251   .     D
C188   O597    1.251   .     S
C189   O573    1.251   .     D
C189   O584    1.251   .     S
C190   O574    1.251   .     D
C190   O583    1.251   .     S
C191   O575    1.251   .     D
C191   O581    1.251   .     S
C192   O576    1.251   .     D
C192   O582    1.251   .     S
C193   H337    0.931   .     S
C194   H338    0.931   .     S
C195   H339    0.931   .     S
C196   H340    0.931   .     S
C197   H341    0.931   .     S
C198   H342    0.931   .     S
C199   H343    0.931   .     S
C200   H344    0.931   .     S
C201   H345    0.931   .     S
C202   H346    0.931   .     S
C203   H347    0.931   .     S
C204   H348    0.931   .     S
C205   H349    0.931   .     S
C206   H350    0.931   .     S
C207   H351    0.931   .     S
C208   H352    0.931   .     S
C209   H353    0.931   .     S
C210   H354    0.931   .     S
C211   H355    0.931   .     S
C212   H356    0.931   .     S
C213   H357    0.931   .     S
C214   H358    0.931   .     S
C215   H359    0.931   .     S
C216   H360    0.931   .     S
C217   H361    0.931   .     S
C218   H362    0.931   .     S
C219   H363    0.931   .     S
C220   H364    0.931   .     S
C221   H365    0.931   .     S
C222   H366    0.931   .     S
C223   H367    0.931   .     S
C224   H368    0.931   .     S
C225   H369    0.931   .     S
C226   H370    0.931   .     S
C227   H371    0.931   .     S
C228   H372    0.931   .     S
C229   H373    0.931   .     S
C230   H374    0.931   .     S
C231   H375    0.931   .     S
C232   H376    0.931   .     S
C233   H377    0.931   .     S
C234   H378    0.931   .     S
C235   H379    0.931   .     S
C236   H380    0.931   .     S
C237   H381    0.931   .     S
C238   H382    0.931   .     S
C239   H383    0.931   .     S
C240   H384    0.931   .     S
C241   H385    0.933   .     S
C242   H386    0.933   .     S
C243   H387    0.933   .     S
C244   H388    0.933   .     S
C245   H389    0.932   .     S
C246   H390    0.932   .     S
C247   H391    0.932   .     S
C248   H392    0.932   .     S
C249   H393    0.933   .     S
C250   H394    0.933   .     S
C251   H395    0.933   .     S
C252   H396    0.933   .     S
C253   H397    0.932   .     S
C254   H398    0.932   .     S
C255   H399    0.932   .     S
C256   H400    0.932   .     S
C257   H401    0.933   .     S
C258   H402    0.933   .     S
C259   H403    0.933   .     S
C260   H404    0.933   .     S
C261   H405    0.932   .     S
C262   H406    0.932   .     S
C263   H407    0.932   .     S
C264   H408    0.932   .     S
C265   H409    0.933   .     S
C266   H410    0.933   .     S
C267   H411    0.933   .     S
C268   H412    0.933   .     S
C269   H413    0.932   .     S
C270   H414    0.932   .     S
C271   H415    0.932   .     S
C272   H416    0.932   .     S
C273   H417    0.932   .     S
C274   H418    0.932   .     S
C275   H419    0.932   .     S
C276   H420    0.932   .     S
C277   H421    0.933   .     S
C278   H422    0.933   .     S
C279   H423    0.933   .     S
C280   H424    0.933   .     S
C281   H425    0.932   .     S
C282   H426    0.932   .     S
C283   H427    0.932   .     S
C284   H428    0.932   .     S
C285   H429    0.933   .     S
C286   H430    0.933   .     S
C287   H431    0.933   .     S
C288   H432    0.933   .     S
Cu289  Cu326   2.630   .     S
Cu289  O433    1.951   1_554 S
Cu289  O445    1.951   .     S
Cu289  O458    1.951   .     S
Cu289  O470    1.951   1_554 S
Cu290  Cu325   2.630   .     S
Cu290  O434    1.951   1_554 S
Cu290  O446    1.951   .     S
Cu290  O457    1.951   .     S
Cu290  O469    1.951   1_554 S
Cu291  Cu328   2.630   .     S
Cu291  O435    1.951   .     S
Cu291  O448    1.951   1_554 S
Cu291  O460    1.951   1_554 S
Cu291  O471    1.951   .     S
Cu292  Cu327   2.630   .     S
Cu292  O436    1.951   .     S
Cu292  O447    1.951   1_554 S
Cu292  O459    1.951   1_554 S
Cu292  O472    1.951   .     S
Cu293  Cu306   2.630   .     S
Cu293  O437    1.951   1_455 S
Cu293  O455    1.951   .     S
Cu293  O462    1.951   .     S
Cu293  O480    1.951   1_455 S
Cu294  Cu305   2.630   .     S
Cu294  O438    1.951   1_455 S
Cu294  O456    1.951   .     S
Cu294  O461    1.951   .     S
Cu294  O479    1.951   1_455 S
Cu295  Cu308   2.630   .     S
Cu295  O439    1.951   .     S
Cu295  O454    1.951   1_455 S
Cu295  O464    1.951   1_455 S
Cu295  O477    1.951   .     S
Cu296  Cu307   2.630   .     S
Cu296  O440    1.951   .     S
Cu296  O453    1.951   1_455 S
Cu296  O463    1.951   1_455 S
Cu296  O478    1.951   .     S
Cu297  Cu322   2.630   .     S
Cu297  O441    1.951   1_545 S
Cu297  O452    1.951   .     S
Cu297  O466    1.951   .     S
Cu297  O475    1.951   1_545 S
Cu298  Cu321   2.630   .     S
Cu298  O442    1.951   1_545 S
Cu298  O451    1.951   .     S
Cu298  O465    1.951   .     S
Cu298  O476    1.951   1_545 S
Cu299  Cu324   2.630   .     S
Cu299  O443    1.951   .     S
Cu299  O449    1.951   1_545 S
Cu299  O468    1.951   1_545 S
Cu299  O474    1.951   .     S
Cu300  Cu323   2.630   .     S
Cu300  O444    1.951   .     S
Cu300  O450    1.951   1_545 S
Cu300  O467    1.951   1_545 S
Cu300  O473    1.951   .     S
Cu301  Cu314   2.630   .     S
Cu301  O481    1.952   .     S
Cu301  O493    1.951   .     S
Cu301  O506    1.951   .     S
Cu301  O518    1.952   .     S
Cu302  Cu313   2.630   .     S
Cu302  O482    1.952   .     S
Cu302  O494    1.951   .     S
Cu302  O505    1.951   .     S
Cu302  O517    1.952   .     S
Cu303  Cu316   2.630   .     S
Cu303  O483    1.951   .     S
Cu303  O496    1.952   .     S
Cu303  O508    1.952   .     S
Cu303  O519    1.951   .     S
Cu304  Cu315   2.630   .     S
Cu304  O484    1.951   .     S
Cu304  O495    1.952   .     S
Cu304  O507    1.952   .     S
Cu304  O520    1.951   .     S
Cu305  O485    1.951   1_455 S
Cu305  O503    1.951   .     S
Cu305  O510    1.951   .     S
Cu305  O528    1.951   1_455 S
Cu306  O486    1.951   1_455 S
Cu306  O504    1.951   .     S
Cu306  O509    1.951   .     S
Cu306  O527    1.951   1_455 S
Cu307  O487    1.951   .     S
Cu307  O502    1.951   1_455 S
Cu307  O512    1.951   1_455 S
Cu307  O525    1.951   .     S
Cu308  O488    1.951   .     S
Cu308  O501    1.951   1_455 S
Cu308  O511    1.951   1_455 S
Cu308  O526    1.951   .     S
Cu309  Cu334   2.630   .     S
Cu309  O489    1.952   .     S
Cu309  O500    1.951   .     S
Cu309  O514    1.951   .     S
Cu309  O523    1.952   .     S
Cu310  Cu333   2.630   .     S
Cu310  O490    1.952   .     S
Cu310  O499    1.951   .     S
Cu310  O513    1.951   .     S
Cu310  O524    1.952   .     S
Cu311  Cu336   2.630   .     S
Cu311  O491    1.951   .     S
Cu311  O497    1.952   .     S
Cu311  O516    1.952   .     S
Cu311  O522    1.951   .     S
Cu312  Cu335   2.630   .     S
Cu312  O492    1.951   .     S
Cu312  O498    1.952   .     S
Cu312  O515    1.952   .     S
Cu312  O521    1.951   .     S
Cu313  O529    1.952   .     S
Cu313  O541    1.951   .     S
Cu313  O554    1.951   .     S
Cu313  O566    1.952   .     S
Cu314  O530    1.952   .     S
Cu314  O542    1.951   .     S
Cu314  O553    1.951   .     S
Cu314  O565    1.952   .     S
Cu315  O531    1.951   .     S
Cu315  O544    1.952   .     S
Cu315  O556    1.952   .     S
Cu315  O567    1.951   .     S
Cu316  O532    1.951   .     S
Cu316  O543    1.952   .     S
Cu316  O555    1.952   .     S
Cu316  O568    1.951   .     S
Cu317  Cu330   2.630   .     S
Cu317  O533    1.952   .     S
Cu317  O551    1.951   .     S
Cu317  O558    1.951   .     S
Cu317  O576    1.952   .     S
Cu318  Cu329   2.630   .     S
Cu318  O534    1.952   .     S
Cu318  O552    1.951   .     S
Cu318  O557    1.951   .     S
Cu318  O575    1.952   .     S
Cu319  Cu332   2.630   .     S
Cu319  O535    1.951   .     S
Cu319  O550    1.952   .     S
Cu319  O560    1.952   .     S
Cu319  O573    1.951   .     S
Cu320  Cu331   2.630   .     S
Cu320  O536    1.951   .     S
Cu320  O549    1.952   .     S
Cu320  O559    1.952   .     S
Cu320  O574    1.951   .     S
Cu321  O537    1.951   1_545 S
Cu321  O548    1.951   .     S
Cu321  O562    1.951   .     S
Cu321  O571    1.951   1_545 S
Cu322  O538    1.951   1_545 S
Cu322  O547    1.951   .     S
Cu322  O561    1.951   .     S
Cu322  O572    1.951   1_545 S
Cu323  O539    1.951   .     S
Cu323  O545    1.951   1_545 S
Cu323  O564    1.951   1_545 S
Cu323  O570    1.951   .     S
Cu324  O540    1.951   .     S
Cu324  O546    1.951   1_545 S
Cu324  O563    1.951   1_545 S
Cu324  O569    1.951   .     S
Cu325  O577    1.951   1_554 S
Cu325  O589    1.951   .     S
Cu325  O602    1.951   .     S
Cu325  O614    1.951   1_554 S
Cu326  O578    1.951   1_554 S
Cu326  O590    1.951   .     S
Cu326  O601    1.951   .     S
Cu326  O613    1.951   1_554 S
Cu327  O579    1.951   .     S
Cu327  O592    1.951   1_554 S
Cu327  O604    1.951   1_554 S
Cu327  O615    1.951   .     S
Cu328  O580    1.951   .     S
Cu328  O591    1.951   1_554 S
Cu328  O603    1.951   1_554 S
Cu328  O616    1.951   .     S
Cu329  O581    1.952   .     S
Cu329  O599    1.951   .     S
Cu329  O606    1.951   .     S
Cu329  O624    1.952   .     S
Cu330  O582    1.952   .     S
Cu330  O600    1.951   .     S
Cu330  O605    1.951   .     S
Cu330  O623    1.952   .     S
Cu331  O583    1.951   .     S
Cu331  O598    1.952   .     S
Cu331  O608    1.952   .     S
Cu331  O621    1.951   .     S
Cu332  O584    1.951   .     S
Cu332  O597    1.952   .     S
Cu332  O607    1.952   .     S
Cu332  O622    1.951   .     S
Cu333  O585    1.952   .     S
Cu333  O596    1.951   .     S
Cu333  O610    1.951   .     S
Cu333  O619    1.952   .     S
Cu334  O586    1.952   .     S
Cu334  O595    1.951   .     S
Cu334  O609    1.951   .     S
Cu334  O620    1.952   .     S
Cu335  O587    1.951   .     S
Cu335  O593    1.952   .     S
Cu335  O612    1.952   .     S
Cu335  O618    1.951   .     S
Cu336  O588    1.951   .     S
Cu336  O594    1.952   .     S
Cu336  O611    1.952   .     S
Cu336  O617    1.951   .     S
O433   Cu289   1.951   1_556 S
O434   Cu290   1.951   1_556 S
O437   Cu293   1.951   1_655 S
O438   Cu294   1.951   1_655 S
O441   Cu297   1.951   1_565 S
O442   Cu298   1.951   1_565 S
O447   Cu292   1.951   1_556 S
O448   Cu291   1.951   1_556 S
O449   Cu299   1.951   1_565 S
O450   Cu300   1.951   1_565 S
O453   Cu296   1.951   1_655 S
O454   Cu295   1.951   1_655 S
O459   Cu292   1.951   1_556 S
O460   Cu291   1.951   1_556 S
O463   Cu296   1.951   1_655 S
O464   Cu295   1.951   1_655 S
O467   Cu300   1.951   1_565 S
O468   Cu299   1.951   1_565 S
O469   Cu290   1.951   1_556 S
O470   Cu289   1.951   1_556 S
O475   Cu297   1.951   1_565 S
O476   Cu298   1.951   1_565 S
O479   Cu294   1.951   1_655 S
O480   Cu293   1.951   1_655 S
O485   Cu305   1.951   1_655 S
O486   Cu306   1.951   1_655 S
O501   Cu308   1.951   1_655 S
O502   Cu307   1.951   1_655 S
O511   Cu308   1.951   1_655 S
O512   Cu307   1.951   1_655 S
O527   Cu306   1.951   1_655 S
O528   Cu305   1.951   1_655 S
O537   Cu321   1.951   1_565 S
O538   Cu322   1.951   1_565 S
O545   Cu323   1.951   1_565 S
O546   Cu324   1.951   1_565 S
O563   Cu324   1.951   1_565 S
O564   Cu323   1.951   1_565 S
O571   Cu321   1.951   1_565 S
O572   Cu322   1.951   1_565 S
O577   Cu325   1.951   1_556 S
O578   Cu326   1.951   1_556 S
O591   Cu328   1.951   1_556 S
O592   Cu327   1.951   1_556 S
O603   Cu328   1.951   1_556 S
O604   Cu327   1.951   1_556 S
O613   Cu326   1.951   1_556 S
O614   Cu325   1.951   1_556 S
