data_uio66ddec6charges								
_audit_creation_date	6/8/2016							
_audit_creation_method	'Materials	Studio'						
_symmetry_space_group_name_H-M	'P1'							
_symmetry_Int_Tables_number	1							
_symmetry_cell_setting	triclinic							
loop_								
_symmetry_equiv_pos_as_xyz								
	"x,y,z"							
_cell_length_a	14.834							
_cell_length_b	14.834							
_cell_length_c	14.834							
_cell_angle_alpha	60							
_cell_angle_beta	60							
_cell_angle_gamma	60							
loop_								
_atom_site_label								
_atom_site_type_symbol								
_atom_site_fract_x								
_atom_site_fract_y								
_atom_site_fract_z								
_atom_site_U_iso_or_equiv								
_atom_site_adp_type								
_atom_site_occupancy								
_atom_site_charge								
C1	C	-0.40683	0.89289	1.32604	0.01267	Uiso	1	-0.088273
C2	C	0.03951	0.44462	1.80351	0.01267	Uiso	1	-0.092561
C3	C	-0.05222	1.27621	0.9711	0.01267	Uiso	1	-0.092807
C4	C	0.4275	0.79774	1.41867	0.01267	Uiso	1	-0.095857
C5	C	-0.0527	0.44492	1.41988	0.01267	Uiso	1	-0.088196
C6	C	0.42476	0.89127	0.97161	0.01267	Uiso	1	-0.092506
C7	C	-0.40765	0.79953	1.8032	0.01267	Uiso	1	-0.092817
C8	C	0.03993	1.27925	1.32473	0.01267	Uiso	1	-0.09579
C9	C	0.04114	0.79905	0.97191	0.01267	Uiso	1	-0.088328
C10	C	-0.40713	1.27652	1.41826	0.01267	Uiso	1	-0.092443
C11	C	0.42446	0.44411	1.32652	0.01267	Uiso	1	-0.092781
C12	C	-0.05401	0.89168	1.80625	0.01267	Uiso	1	-0.095862
C13	C	0.04113	0.44498	1.32593	0.01267	Uiso	1	-0.088485
C14	C	-0.40876	0.89344	1.80428	0.01267	Uiso	1	-0.090743
C15	C	0.42589	0.79733	0.97055	0.01267	Uiso	1	-0.09183
C16	C	-0.05393	1.27921	1.41869	0.01267	Uiso	1	-0.095689
C17	C	-0.40678	0.79894	1.41987	0.01267	Uiso	1	-0.088439
C18	C	0.04169	1.27729	0.96999	0.01267	Uiso	1	-0.09073
C19	C	-0.05442	0.44357	1.80464	0.01267	Uiso	1	-0.091891
C20	C	0.42746	0.8917	1.32481	0.01267	Uiso	1	-0.095812
C21	C	-0.05281	0.89288	0.97197	0.01267	Uiso	1	-0.088455
C22	C	0.42554	0.44299	1.42043	0.01267	Uiso	1	-0.09084
C23	C	-0.40819	1.27765	1.32432	0.01267	Uiso	1	-0.091883
C24	C	0.03995	0.79782	1.8062	0.01267	Uiso	1	-0.095807
C25	C	-0.19872	0.35708	0.88779	0.01267	Uiso	1	0.620426
C26	C	-0.49102	0.65296	1.5707	0.01267	Uiso	1	0.623332
C27	C	-0.49128	1.04388	1.18021	0.01267	Uiso	1	0.623926
C28	C	0.19211	0.36077	0.88391	0.01267	Uiso	1	0.629418
C29	C	-0.49096	0.65303	0.88407	0.01267	Uiso	1	0.620354
C30	C	0.19196	0.36074	1.17995	0.01267	Uiso	1	0.623279
C31	C	-0.19853	0.36047	1.57087	0.01267	Uiso	1	0.623971
C32	C	-0.49484	1.04386	0.88776	0.01267	Uiso	1	0.629305
C33	C	-0.49467	0.3608	1.18002	0.01267	Uiso	1	0.620354
C34	C	-0.19879	1.04371	0.88773	0.01267	Uiso	1	0.623268
C35	C	0.19213	0.65322	0.88746	0.01267	Uiso	1	0.624023
C36	C	-0.49099	0.35692	1.57085	0.01267	Uiso	1	0.629235
C37	C	-0.48869	0.94043	1.27841	0.01267	Uiso	1	-0.031741
C38	C	0.08872	0.36253	0.88725	0.01267	Uiso	1	-0.034965
C39	C	-0.10041	0.36042	0.88946	0.01267	Uiso	1	-0.025822
C40	C	-0.48859	0.75126	1.46735	0.01267	Uiso	1	-0.031383
C41	C	-0.10033	0.36306	1.46742	0.01267	Uiso	1	-0.03179
C42	C	-0.4915	0.94047	0.88952	0.01267	Uiso	1	-0.03494
C43	C	-0.48929	0.75135	0.88741	0.01267	Uiso	1	-0.025895
C44	C	0.08861	0.36317	1.27825	0.01267	Uiso	1	-0.031427
C45	C	0.08868	0.75142	0.89005	0.01267	Uiso	1	-0.031722
C46	C	-0.48922	0.36025	1.46746	0.01267	Uiso	1	-0.034944
C47	C	-0.49133	0.36247	1.27833	0.01267	Uiso	1	-0.025772
C48	C	-0.10049	0.94036	0.89016	0.01267	Uiso	1	-0.031324
H1	H	-0.34465	0.93137	1.28865	0.01267	Uiso	1	0.115939
H2	H	0.07664	0.50787	1.74043	0.01267	Uiso	1	0.116774
H3	H	-0.0892	1.2128	1.03402	0.01267	Uiso	1	0.121139
H4	H	0.3652	0.75937	1.45618	0.01267	Uiso	1	0.121128
H5	H	-0.09009	0.5071	1.45836	0.01267	Uiso	1	0.115931
H6	H	0.36168	0.9284	1.03486	0.01267	Uiso	1	0.116702
H7	H	-0.34473	0.76256	1.73979	0.01267	Uiso	1	0.121135
H8	H	0.07744	1.21695	1.28637	0.01267	Uiso	1	0.121096
H9	H	0.07962	0.76166	1.03409	0.01267	Uiso	1	0.115948
H10	H	-0.34388	1.21344	1.45539	0.01267	Uiso	1	0.116732
H11	H	0.36105	0.50703	1.28955	0.01267	Uiso	1	0.121135
H12	H	-0.09238	0.92919	1.74394	0.01267	Uiso	1	0.121128
H13	H	0.07959	0.50719	1.28849	0.01267	Uiso	1	0.116233
H14	H	-0.34672	0.93234	1.74173	0.01267	Uiso	1	0.116262
H15	H	0.36373	0.75856	1.03297	0.01267	Uiso	1	0.121029
H16	H	-0.09228	1.21689	1.45625	0.01267	Uiso	1	0.121426
H17	H	-0.34456	0.76149	1.45833	0.01267	Uiso	1	0.116209
H18	H	0.08058	1.21475	1.03203	0.01267	Uiso	1	0.116235
H19	H	-0.0932	0.50599	1.74247	0.01267	Uiso	1	0.121002
H20	H	0.36514	0.92926	1.28646	0.01267	Uiso	1	0.121547
H21	H	-0.09026	0.93134	1.03418	0.01267	Uiso	1	0.116206
H22	H	0.36299	0.50504	1.45933	0.01267	Uiso	1	0.116255
H23	H	-0.34577	1.21548	1.28555	0.01267	Uiso	1	0.12098
H24	H	0.0775	0.75947	1.74388	0.01267	Uiso	1	0.121538
H25	H	0.40559	1.25792	1.16216	0.01267	Uiso	1	0.419383
H26	H	0.40607	1.25782	1.78481	0.01267	Uiso	1	0.42788
H27	H	-0.21659	1.25734	1.78491	0.01267	Uiso	1	0.419418
H28	H	0.40617	0.63516	1.78433	0.01267	Uiso	1	0.419395
O1	O	-0.41614	1.08503	1.14278	0.01267	Uiso	1	-0.604487
O2	O	0.23308	0.43607	1.80195	0.01267	Uiso	1	-0.613718
O3	O	-0.23633	1.27533	0.96321	0.01267	Uiso	1	-0.621291
O4	O	0.42747	0.61498	1.6119	0.01267	Uiso	1	-0.629992
O5	O	-0.23597	0.43561	1.61202	0.01267	Uiso	1	-0.604506
O6	O	0.42321	1.08483	0.96306	0.01267	Uiso	1	-0.613678
O7	O	-0.41553	0.61542	1.80232	0.01267	Uiso	1	-0.62123
O8	O	0.23316	1.27922	1.14197	0.01267	Uiso	1	-0.629972
O9	O	0.23328	0.61578	0.9626	0.01267	Uiso	1	-0.604555
O10	O	-0.41568	1.27496	1.61182	0.01267	Uiso	1	-0.613701
O11	O	0.42358	0.43622	1.14241	0.01267	Uiso	1	-0.621301
O12	O	-0.23678	1.08491	1.80621	0.01267	Uiso	1	-0.629964
O13	O	0.23304	0.43587	1.14239	0.01267	Uiso	1	-0.602199
O14	O	-0.41977	1.08511	1.80631	0.01267	Uiso	1	-0.613997
O15	O	0.42758	0.61502	0.95892	0.01267	Uiso	1	-0.62198
O16	O	-0.23664	1.27917	1.61198	0.01267	Uiso	1	-0.628266
O17	O	-0.41588	0.61539	1.61178	0.01267	Uiso	1	-0.602232
O18	O	0.23336	1.27931	0.95897	0.01267	Uiso	1	-0.614037
O19	O	-0.23673	0.43193	1.80633	0.01267	Uiso	1	-0.622019
O20	O	0.42742	1.08499	1.1421	0.01267	Uiso	1	-0.628251
O21	O	-0.23636	1.08479	0.96286	0.01267	Uiso	1	-0.602247
O22	O	0.42756	0.43198	1.6121	0.01267	Uiso	1	-0.613892
O23	O	-0.41982	1.27934	1.14202	0.01267	Uiso	1	-0.621973
O24	O	0.23323	0.61511	1.80617	0.01267	Uiso	1	-0.62825
O25	O	-0.29674	1.28426	1.81164	0.01267	Uiso	1	-1.064062
O26	O	0.4329	0.55502	1.81125	0.01267	Uiso	1	-1.063997
O27	O	0.43251	1.28465	1.08201	0.01267	Uiso	1	-1.063995
O28	O	0.43278	1.28454	1.81153	0.01267	Uiso	1	-1.080607
O29	O	0.35022	0.40441	0.93102	0.01267	Uiso	1	-1.153782
O30	O	-0.44772	1.20198	0.9314	0.01267	Uiso	1	-1.153817
O31	O	-0.44734	0.40403	1.72896	0.01267	Uiso	1	-1.153807
O32	O	-0.44758	0.40417	0.93116	0.01267	Uiso	1	-1.147794
Zr1	Zr	-0.37843	1.23228	1.00112	0.01267	Uiso	1	2.373826
Zr2	Zr	0.38083	0.47379	1.75883	0.01267	Uiso	1	2.374035
Zr3	Zr	-0.37763	0.47332	1.75927	0.01267	Uiso	1	2.373737
Zr4	Zr	0.38009	1.23258	1.00078	0.01267	Uiso	1	2.374048
Zr5	Zr	0.38053	0.47413	1.00031	0.01267	Uiso	1	2.373734
Zr6	Zr	-0.37796	1.23184	1.75957	0.01267	Uiso	1	2.374091
loop_								
_geom_bond_atom_site_label_1								
_geom_bond_atom_site_label_2								
_geom_bond_distance								
_geom_bond_site_symmetry_2								
_ccdc_geom_bond_type								
C1	C17	1.393	.	S				
C1	C37	1.405	.	S				
C1	H1	1.087	.	S				
C2	C19	1.393	.	S				
C2	H2	1.088	.	S				
C2	C38	1.437	1_556	S				
C3	C18	1.393	.	S				
C3	H3	1.088	.	S				
C3	C39	1.413	1_565	S				
C4	C20	1.393	.	S				
C4	H4	1.087	.	S				
C4	C40	1.445	1_655	S				
C5	C13	1.393	.	S				
C5	C41	1.405	.	S				
C5	H5	1.087	.	S				
C6	C15	1.393	.	S				
C6	H6	1.088	.	S				
C6	C42	1.437	1_655	S				
C7	C14	1.393	.	S				
C7	H7	1.088	.	S				
C7	C43	1.413	1_556	S				
C8	C16	1.393	.	S				
C8	H8	1.088	.	S				
C8	C44	1.445	1_565	S				
C9	C21	1.393	.	S				
C9	C45	1.405	.	S				
C9	H9	1.087	.	S				
C10	C23	1.393	.	S				
C10	H10	1.088	.	S				
C10	C46	1.437	1_565	S				
C11	C22	1.393	.	S				
C11	H11	1.088	.	S				
C11	C47	1.413	1_655	S				
C12	C24	1.393	.	S				
C12	H12	1.088	.	S				
C12	C48	1.445	1_556	S				
C13	C44	1.405	.	S				
C13	H13	1.087	.	S				
C14	H14	1.087	.	S				
C14	C42	1.437	1_556	S				
C15	H15	1.087	.	S				
C15	C43	1.415	1_655	S				
C16	H16	1.088	.	S				
C16	C41	1.445	1_565	S				
C17	C40	1.405	.	S				
C17	H17	1.088	.	S				
C18	H18	1.087	.	S				
C18	C38	1.437	1_565	S				
C19	H19	1.087	.	S				
C19	C39	1.415	1_556	S				
C20	H20	1.088	.	S				
C20	C37	1.445	1_655	S				
C21	C48	1.405	.	S				
C21	H21	1.087	.	S				
C22	H22	1.087	.	S				
C22	C46	1.437	1_655	S				
C23	H23	1.087	.	S				
C23	C47	1.415	1_565	S				
C24	H24	1.088	.	S				
C24	C45	1.445	1_556	S				
C25	C39	1.497	.	S				
C25	O3	1.315	1_545	S				
C25	O19	1.313	1_554	S				
C26	C40	1.497	.	S				
C26	O17	1.282	.	S				
C26	O4	1.323	1_455	S				
C27	C37	1.497	.	S				
C27	O1	1.283	.	S				
C27	O20	1.322	1_455	S				
C28	C38	1.497	.	S				
C28	O2	1.295	1_554	S				
C28	O18	1.293	1_545	S				
C29	C43	1.497	.	S				
C29	O7	1.315	1_554	S				
C29	O15	1.313	1_455	S				
C30	C44	1.497	.	S				
C30	O13	1.282	.	S				
C30	O8	1.323	1_545	S				
C31	C41	1.497	.	S				
C31	O5	1.283	.	S				
C31	O16	1.322	1_545	S				
C32	C42	1.497	.	S				
C32	O6	1.295	1_455	S				
C32	O14	1.293	1_554	S				
C33	C47	1.497	.	S				
C33	O11	1.315	1_455	S				
C33	O23	1.313	1_545	S				
C34	C48	1.497	.	S				
C34	O21	1.282	.	S				
C34	O12	1.323	1_554	S				
C35	C45	1.497	.	S				
C35	O9	1.283	.	S				
C35	O24	1.322	1_554	S				
C36	C46	1.497	.	S				
C36	O10	1.295	1_545	S				
C36	O22	1.293	1_455	S				
C37	C20	1.445	1_455	S				
C38	C2	1.437	1_554	S				
C38	C18	1.437	1_545	S				
C39	C3	1.413	1_545	S				
C39	C19	1.415	1_554	S				
C40	C4	1.445	1_455	S				
C41	C16	1.445	1_545	S				
C42	C6	1.437	1_455	S				
C42	C14	1.437	1_554	S				
C43	C15	1.415	1_455	S				
C43	C7	1.413	1_554	S				
C44	C8	1.445	1_545	S				
C45	C24	1.445	1_554	S				
C46	C22	1.437	1_455	S				
C46	C10	1.437	1_545	S				
C47	C23	1.415	1_545	S				
C47	C11	1.413	1_455	S				
C48	C12	1.445	1_554	S				
H25	O27	0.971	.	S				
H26	O28	0.971	.	S				
H27	O25	0.971	.	S				
H28	O26	0.971	.	S				
O1	Zr1	2.226	.	S				
O2	Zr2	2.234	.	S				
O2	C28	1.295	1_556	S				
O3	Zr1	2.229	.	S				
O3	C25	1.315	1_565	S				
O4	Zr2	2.234	.	S				
O4	C26	1.323	1_655	S				
O5	Zr3	2.226	.	S				
O6	Zr4	2.234	.	S				
O6	C32	1.295	1_655	S				
O7	Zr3	2.229	.	S				
O7	C29	1.315	1_556	S				
O8	Zr4	2.234	.	S				
O8	C30	1.323	1_565	S				
O9	Zr5	2.226	.	S				
O10	Zr6	2.234	.	S				
O10	C36	1.295	1_565	S				
O11	Zr5	2.229	.	S				
O11	C33	1.315	1_655	S				
O12	Zr6	2.234	.	S				
O12	C34	1.323	1_556	S				
O13	Zr5	2.233	.	S				
O14	Zr6	2.239	.	S				
O14	C32	1.293	1_556	S				
O15	Zr5	2.232	.	S				
O15	C29	1.313	1_655	S				
O16	Zr6	2.242	.	S				
O16	C31	1.322	1_565	S				
O17	Zr3	2.233	.	S				
O18	Zr4	2.239	.	S				
O18	C28	1.293	1_565	S				
O19	Zr3	2.232	.	S				
O19	C25	1.313	1_556	S				
O20	Zr4	2.242	.	S				
O20	C27	1.322	1_655	S				
O21	Zr1	2.233	.	S				
O22	Zr2	2.239	.	S				
O22	C36	1.293	1_655	S				
O23	Zr1	2.232	.	S				
O23	C33	1.313	1_565	S				
O24	Zr2	2.242	.	S				
O24	C35	1.322	1_556	S				
O25	Zr6	2.263	.	S				
O25	Zr1	2.307	1_556	S				
O25	Zr3	2.301	1_565	S				
O26	Zr2	2.263	.	S				
O26	Zr3	2.307	1_655	S				
O26	Zr5	2.301	1_556	S				
O27	Zr4	2.263	.	S				
O27	Zr1	2.302	1_655	S				
O27	Zr5	2.307	1_565	S				
O28	Zr2	2.309	1_565	S				
O28	Zr4	2.309	1_556	S				
O28	Zr6	2.309	1_655	S				
O29	Zr5	2.078	.	S				
O29	Zr2	2.114	1_554	S				
O29	Zr4	2.111	1_545	S				
O30	Zr1	2.078	.	S				
O30	Zr4	2.114	1_455	S				
O30	Zr6	2.111	1_554	S				
O31	Zr3	2.078	.	S				
O31	Zr2	2.111	1_455	S				
O31	Zr6	2.114	1_545	S				
O32	Zr1	2.106	1_545	S				
O32	Zr3	2.106	1_554	S				
O32	Zr5	2.106	1_455	S				
Zr1	O27	2.302	1_455	S				
Zr1	O32	2.106	1_565	S				
Zr1	O25	2.307	1_554	S				
Zr2	O31	2.111	1_655	S				
Zr2	O28	2.309	1_545	S				
Zr2	O29	2.114	1_556	S				
Zr3	O26	2.307	1_455	S				
Zr3	O25	2.301	1_545	S				
Zr3	O32	2.106	1_556	S				
Zr4	O29	2.111	1_565	S				
Zr4	O28	2.309	1_554	S				
Zr4	O30	2.114	1_655	S				
Zr5	O27	2.307	1_545	S				
Zr5	O26	2.301	1_554	S				
Zr5	O32	2.106	1_655	S				
Zr6	O31	2.114	1_565	S				
Zr6	O30	2.111	1_556	S				
Zr6	O28	2.309	1_455	S				
