data_image0
_cell_length_a       26.896
_cell_length_b       26.896
_cell_length_c       26.896
_cell_angle_alpha    90
_cell_angle_beta     90
_cell_angle_gamma    90

_symmetry_space_group_name_H-M    "P 1"
_symmetry_int_tables_number       1

loop_
  _symmetry_equiv_pos_as_xyz
  'x, y, z'

loop_
  _atom_site_label
  _atom_site_occupancy
  _atom_site_Cartn_x
  _atom_site_Cartn_y
  _atom_site_Cartn_z
  _atom_site_thermal_displace_type
  _atom_site_B_iso_or_equiv
  _atom_site_type_symbol
  Zr1      1.0000 2.47551  0.00000  0.00000  Biso   1.000  Zr
  Zr2      1.0000 24.42049  0.00000  0.00000  Biso   1.000  Zr
  Zr3      1.0000 0.00000  2.47551  0.00000  Biso   1.000  Zr
  Zr4      1.0000 0.00000  24.42049  0.00000  Biso   1.000  Zr
  Zr5      1.0000 0.00000  0.00000  2.47551  Biso   1.000  Zr
  Zr6      1.0000 0.00000  0.00000  24.42049  Biso   1.000  Zr
  Zr7      1.0000 2.47551  13.44800  13.44800  Biso   1.000  Zr
  Zr8      1.0000 24.42049  13.44800  13.44800  Biso   1.000  Zr
  Zr9      1.0000 0.00000  15.92351  13.44800  Biso   1.000  Zr
  Zr10     1.0000 0.00000  10.97249  13.44800  Biso   1.000  Zr
  Zr11     1.0000 0.00000  13.44800  15.92351  Biso   1.000  Zr
  Zr12     1.0000 0.00000  13.44800  10.97249  Biso   1.000  Zr
  Zr13     1.0000 15.92351  0.00000  13.44800  Biso   1.000  Zr
  Zr14     1.0000 10.97249  0.00000  13.44800  Biso   1.000  Zr
  Zr15     1.0000 13.44800  2.47551  13.44800  Biso   1.000  Zr
  Zr16     1.0000 13.44800  24.42049  13.44800  Biso   1.000  Zr
  Zr17     1.0000 13.44800  0.00000  15.92351  Biso   1.000  Zr
  Zr18     1.0000 13.44800  0.00000  10.97249  Biso   1.000  Zr
  Zr19     1.0000 15.92351  13.44800  0.00000  Biso   1.000  Zr
  Zr20     1.0000 10.97249  13.44800  0.00000  Biso   1.000  Zr
  Zr21     1.0000 13.44800  15.92351  0.00000  Biso   1.000  Zr
  Zr22     1.0000 13.44800  10.97249  0.00000  Biso   1.000  Zr
  Zr23     1.0000 13.44800  13.44800  2.47551  Biso   1.000  Zr
  Zr24     1.0000 13.44800  13.44800  24.42049  Biso   1.000  Zr
  O1       1.0000 1.22108  1.22108  1.22108  Biso   1.000  O 
  O2       1.0000 25.67492  25.67492  1.22108  Biso   1.000  O 
  O3       1.0000 25.67492  1.22108  25.67492  Biso   1.000  O 
  O4       1.0000 1.22108  25.67492  25.67492  Biso   1.000  O 
  O5       1.0000 1.22108  1.22108  25.67492  Biso   1.000  O 
  O6       1.0000 25.67492  25.67492  25.67492  Biso   1.000  O 
  O7       1.0000 1.22108  25.67492  1.22108  Biso   1.000  O 
  O8       1.0000 25.67492  1.22108  1.22108  Biso   1.000  O 
  O9       1.0000 1.22108  14.66908  14.66908  Biso   1.000  O 
  O10      1.0000 25.67492  12.22692  14.66908  Biso   1.000  O 
  O11      1.0000 25.67492  14.66908  12.22692  Biso   1.000  O 
  O12      1.0000 1.22108  12.22692  12.22692  Biso   1.000  O 
  O13      1.0000 1.22108  14.66908  12.22692  Biso   1.000  O 
  O14      1.0000 25.67492  12.22692  12.22692  Biso   1.000  O 
  O15      1.0000 1.22108  12.22692  14.66908  Biso   1.000  O 
  O16      1.0000 25.67492  14.66908  14.66908  Biso   1.000  O 
  O17      1.0000 14.66908  1.22108  14.66908  Biso   1.000  O 
  O18      1.0000 12.22692  25.67492  14.66908  Biso   1.000  O 
  O19      1.0000 12.22692  1.22108  12.22692  Biso   1.000  O 
  O20      1.0000 14.66908  25.67492  12.22692  Biso   1.000  O 
  O21      1.0000 14.66908  1.22108  12.22692  Biso   1.000  O 
  O22      1.0000 12.22692  25.67492  12.22692  Biso   1.000  O 
  O23      1.0000 14.66908  25.67492  14.66908  Biso   1.000  O 
  O24      1.0000 12.22692  1.22108  14.66908  Biso   1.000  O 
  O25      1.0000 14.66908  14.66908  1.22108  Biso   1.000  O 
  O26      1.0000 12.22692  12.22692  1.22108  Biso   1.000  O 
  O27      1.0000 12.22692  14.66908  25.67492  Biso   1.000  O 
  O28      1.0000 14.66908  12.22692  25.67492  Biso   1.000  O 
  O29      1.0000 14.66908  14.66908  25.67492  Biso   1.000  O 
  O30      1.0000 12.22692  12.22692  25.67492  Biso   1.000  O 
  O31      1.0000 14.66908  12.22692  1.22108  Biso   1.000  O 
  O32      1.0000 12.22692  14.66908  1.22108  Biso   1.000  O 
  O33      1.0000 3.56641  0.00000  1.93382  Biso   1.000  O 
  O34      1.0000 23.32959  0.00000  1.93382  Biso   1.000  O 
  O35      1.0000 23.32959  0.00000  24.96218  Biso   1.000  O 
  O36      1.0000 3.56641  0.00000  24.96218  Biso   1.000  O 
  O37      1.0000 1.93382  3.56641  0.00000  Biso   1.000  O 
  O38      1.0000 1.93382  23.32959  0.00000  Biso   1.000  O 
  O39      1.0000 24.96218  23.32959  0.00000  Biso   1.000  O 
  O40      1.0000 24.96218  3.56641  0.00000  Biso   1.000  O 
  O41      1.0000 0.00000  1.93382  3.56641  Biso   1.000  O 
  O42      1.0000 0.00000  1.93382  23.32959  Biso   1.000  O 
  O43      1.0000 0.00000  24.96218  23.32959  Biso   1.000  O 
  O44      1.0000 0.00000  24.96218  3.56641  Biso   1.000  O 
  O45      1.0000 0.00000  3.56641  24.96218  Biso   1.000  O 
  O46      1.0000 0.00000  23.32959  24.96218  Biso   1.000  O 
  O47      1.0000 0.00000  23.32959  1.93382  Biso   1.000  O 
  O48      1.0000 0.00000  3.56641  1.93382  Biso   1.000  O 
  O49      1.0000 3.56641  1.93382  0.00000  Biso   1.000  O 
  O50      1.0000 23.32959  1.93382  0.00000  Biso   1.000  O 
  O51      1.0000 23.32959  24.96218  0.00000  Biso   1.000  O 
  O52      1.0000 3.56641  24.96218  0.00000  Biso   1.000  O 
  O53      1.0000 1.93382  0.00000  23.32959  Biso   1.000  O 
  O54      1.0000 1.93382  0.00000  3.56641  Biso   1.000  O 
  O55      1.0000 24.96218  0.00000  3.56641  Biso   1.000  O 
  O56      1.0000 24.96218  0.00000  23.32959  Biso   1.000  O 
  O57      1.0000 3.56641  13.44800  15.38182  Biso   1.000  O 
  O58      1.0000 23.32959  13.44800  15.38182  Biso   1.000  O 
  O59      1.0000 23.32959  13.44800  11.51418  Biso   1.000  O 
  O60      1.0000 3.56641  13.44800  11.51418  Biso   1.000  O 
  O61      1.0000 1.93382  17.01441  13.44800  Biso   1.000  O 
  O62      1.0000 1.93382  9.88159  13.44800  Biso   1.000  O 
  O63      1.0000 24.96218  9.88159  13.44800  Biso   1.000  O 
  O64      1.0000 24.96218  17.01441  13.44800  Biso   1.000  O 
  O65      1.0000 0.00000  15.38182  17.01441  Biso   1.000  O 
  O66      1.0000 0.00000  15.38182  9.88159  Biso   1.000  O 
  O67      1.0000 0.00000  11.51418  9.88159  Biso   1.000  O 
  O68      1.0000 0.00000  11.51418  17.01441  Biso   1.000  O 
  O69      1.0000 0.00000  17.01441  11.51418  Biso   1.000  O 
  O70      1.0000 0.00000  9.88159  11.51418  Biso   1.000  O 
  O71      1.0000 0.00000  9.88159  15.38182  Biso   1.000  O 
  O72      1.0000 0.00000  17.01441  15.38182  Biso   1.000  O 
  O73      1.0000 3.56641  15.38182  13.44800  Biso   1.000  O 
  O74      1.0000 23.32959  15.38182  13.44800  Biso   1.000  O 
  O75      1.0000 23.32959  11.51418  13.44800  Biso   1.000  O 
  O76      1.0000 3.56641  11.51418  13.44800  Biso   1.000  O 
  O77      1.0000 1.93382  13.44800  9.88159  Biso   1.000  O 
  O78      1.0000 1.93382  13.44800  17.01441  Biso   1.000  O 
  O79      1.0000 24.96218  13.44800  17.01441  Biso   1.000  O 
  O80      1.0000 24.96218  13.44800  9.88159  Biso   1.000  O 
  O81      1.0000 17.01441  0.00000  15.38182  Biso   1.000  O 
  O82      1.0000 9.88159  0.00000  15.38182  Biso   1.000  O 
  O83      1.0000 9.88159  0.00000  11.51418  Biso   1.000  O 
  O84      1.0000 17.01441  0.00000  11.51418  Biso   1.000  O 
  O85      1.0000 15.38182  3.56641  13.44800  Biso   1.000  O 
  O86      1.0000 15.38182  23.32959  13.44800  Biso   1.000  O 
  O87      1.0000 11.51418  23.32959  13.44800  Biso   1.000  O 
  O88      1.0000 11.51418  3.56641  13.44800  Biso   1.000  O 
  O89      1.0000 13.44800  1.93382  17.01441  Biso   1.000  O 
  O90      1.0000 13.44800  1.93382  9.88159  Biso   1.000  O 
  O91      1.0000 13.44800  24.96218  9.88159  Biso   1.000  O 
  O92      1.0000 13.44800  24.96218  17.01441  Biso   1.000  O 
  O93      1.0000 13.44800  3.56641  11.51418  Biso   1.000  O 
  O94      1.0000 13.44800  23.32959  11.51418  Biso   1.000  O 
  O95      1.0000 13.44800  23.32959  15.38182  Biso   1.000  O 
  O96      1.0000 13.44800  3.56641  15.38182  Biso   1.000  O 
  O97      1.0000 17.01441  1.93382  13.44800  Biso   1.000  O 
  O98      1.0000 9.88159  1.93382  13.44800  Biso   1.000  O 
  O99      1.0000 9.88159  24.96218  13.44800  Biso   1.000  O 
  O100     1.0000 17.01441  24.96218  13.44800  Biso   1.000  O 
  O101     1.0000 15.38182  0.00000  9.88159  Biso   1.000  O 
  O102     1.0000 15.38182  0.00000  17.01441  Biso   1.000  O 
  O103     1.0000 11.51418  0.00000  17.01441  Biso   1.000  O 
  O104     1.0000 11.51418  0.00000  9.88159  Biso   1.000  O 
  O105     1.0000 17.01441  13.44800  1.93382  Biso   1.000  O 
  O106     1.0000 9.88159  13.44800  1.93382  Biso   1.000  O 
  O107     1.0000 9.88159  13.44800  24.96218  Biso   1.000  O 
  O108     1.0000 17.01441  13.44800  24.96218  Biso   1.000  O 
  O109     1.0000 15.38182  17.01441  0.00000  Biso   1.000  O 
  O110     1.0000 15.38182  9.88159  0.00000  Biso   1.000  O 
  O111     1.0000 11.51418  9.88159  0.00000  Biso   1.000  O 
  O112     1.0000 11.51418  17.01441  0.00000  Biso   1.000  O 
  O113     1.0000 13.44800  15.38182  3.56641  Biso   1.000  O 
  O114     1.0000 13.44800  15.38182  23.32959  Biso   1.000  O 
  O115     1.0000 13.44800  11.51418  23.32959  Biso   1.000  O 
  O116     1.0000 13.44800  11.51418  3.56641  Biso   1.000  O 
  O117     1.0000 13.44800  17.01441  24.96218  Biso   1.000  O 
  O118     1.0000 13.44800  9.88159  24.96218  Biso   1.000  O 
  O119     1.0000 13.44800  9.88159  1.93382  Biso   1.000  O 
  O120     1.0000 13.44800  17.01441  1.93382  Biso   1.000  O 
  O121     1.0000 17.01441  15.38182  0.00000  Biso   1.000  O 
  O122     1.0000 9.88159  15.38182  0.00000  Biso   1.000  O 
  O123     1.0000 9.88159  11.51418  0.00000  Biso   1.000  O 
  O124     1.0000 17.01441  11.51418  0.00000  Biso   1.000  O 
  O125     1.0000 15.38182  13.44800  23.32959  Biso   1.000  O 
  O126     1.0000 15.38182  13.44800  3.56641  Biso   1.000  O 
  O127     1.0000 11.51418  13.44800  3.56641  Biso   1.000  O 
  O128     1.0000 11.51418  13.44800  23.32959  Biso   1.000  O 
  C1       1.0000 3.15221  0.00000  3.15221  Biso   1.000  C 
  C2       1.0000 23.74379  0.00000  3.15221  Biso   1.000  C 
  C3       1.0000 23.74379  0.00000  23.74379  Biso   1.000  C 
  C4       1.0000 3.15221  0.00000  23.74379  Biso   1.000  C 
  C5       1.0000 3.15221  3.15221  0.00000  Biso   1.000  C 
  C6       1.0000 3.15221  23.74379  0.00000  Biso   1.000  C 
  C7       1.0000 23.74379  23.74379  0.00000  Biso   1.000  C 
  C8       1.0000 23.74379  3.15221  0.00000  Biso   1.000  C 
  C9       1.0000 0.00000  3.15221  3.15221  Biso   1.000  C 
  C10      1.0000 0.00000  3.15221  23.74379  Biso   1.000  C 
  C11      1.0000 0.00000  23.74379  23.74379  Biso   1.000  C 
  C12      1.0000 0.00000  23.74379  3.15221  Biso   1.000  C 
  C13      1.0000 3.15221  13.44800  16.60021  Biso   1.000  C 
  C14      1.0000 23.74379  13.44800  16.60021  Biso   1.000  C 
  C15      1.0000 23.74379  13.44800  10.29579  Biso   1.000  C 
  C16      1.0000 3.15221  13.44800  10.29579  Biso   1.000  C 
  C17      1.0000 3.15221  16.60021  13.44800  Biso   1.000  C 
  C18      1.0000 3.15221  10.29579  13.44800  Biso   1.000  C 
  C19      1.0000 23.74379  10.29579  13.44800  Biso   1.000  C 
  C20      1.0000 23.74379  16.60021  13.44800  Biso   1.000  C 
  C21      1.0000 0.00000  16.60021  16.60021  Biso   1.000  C 
  C22      1.0000 0.00000  16.60021  10.29579  Biso   1.000  C 
  C23      1.0000 0.00000  10.29579  10.29579  Biso   1.000  C 
  C24      1.0000 0.00000  10.29579  16.60021  Biso   1.000  C 
  C25      1.0000 16.60021  0.00000  16.60021  Biso   1.000  C 
  C26      1.0000 10.29579  0.00000  16.60021  Biso   1.000  C 
  C27      1.0000 10.29579  0.00000  10.29579  Biso   1.000  C 
  C28      1.0000 16.60021  0.00000  10.29579  Biso   1.000  C 
  C29      1.0000 16.60021  3.15221  13.44800  Biso   1.000  C 
  C30      1.0000 16.60021  23.74379  13.44800  Biso   1.000  C 
  C31      1.0000 10.29579  23.74379  13.44800  Biso   1.000  C 
  C32      1.0000 10.29579  3.15221  13.44800  Biso   1.000  C 
  C33      1.0000 13.44800  3.15221  16.60021  Biso   1.000  C 
  C34      1.0000 13.44800  3.15221  10.29579  Biso   1.000  C 
  C35      1.0000 13.44800  23.74379  10.29579  Biso   1.000  C 
  C36      1.0000 13.44800  23.74379  16.60021  Biso   1.000  C 
  C37      1.0000 16.60021  13.44800  3.15221  Biso   1.000  C 
  C38      1.0000 10.29579  13.44800  3.15221  Biso   1.000  C 
  C39      1.0000 10.29579  13.44800  23.74379  Biso   1.000  C 
  C40      1.0000 16.60021  13.44800  23.74379  Biso   1.000  C 
  C41      1.0000 16.60021  16.60021  0.00000  Biso   1.000  C 
  C42      1.0000 16.60021  10.29579  0.00000  Biso   1.000  C 
  C43      1.0000 10.29579  10.29579  0.00000  Biso   1.000  C 
  C44      1.0000 10.29579  16.60021  0.00000  Biso   1.000  C 
  C45      1.0000 13.44800  16.60021  3.15221  Biso   1.000  C 
  C46      1.0000 13.44800  16.60021  23.74379  Biso   1.000  C 
  C47      1.0000 13.44800  10.29579  23.74379  Biso   1.000  C 
  C48      1.0000 13.44800  10.29579  3.15221  Biso   1.000  C 
  C49      1.0000 4.20922  0.00000  4.20922  Biso   1.000  C 
  C50      1.0000 22.68678  0.00000  4.20922  Biso   1.000  C 
  C51      1.0000 22.68678  0.00000  22.68678  Biso   1.000  C 
  C52      1.0000 4.20922  0.00000  22.68678  Biso   1.000  C 
  C53      1.0000 4.20922  4.20922  0.00000  Biso   1.000  C 
  C54      1.0000 4.20922  22.68678  0.00000  Biso   1.000  C 
  C55      1.0000 22.68678  22.68678  0.00000  Biso   1.000  C 
  C56      1.0000 22.68678  4.20922  0.00000  Biso   1.000  C 
  C57      1.0000 0.00000  4.20922  4.20922  Biso   1.000  C 
  C58      1.0000 0.00000  4.20922  22.68678  Biso   1.000  C 
  C59      1.0000 0.00000  22.68678  22.68678  Biso   1.000  C 
  C60      1.0000 0.00000  22.68678  4.20922  Biso   1.000  C 
  C61      1.0000 4.20922  13.44800  17.65722  Biso   1.000  C 
  C62      1.0000 22.68678  13.44800  17.65722  Biso   1.000  C 
  C63      1.0000 22.68678  13.44800  9.23878  Biso   1.000  C 
  C64      1.0000 4.20922  13.44800  9.23878  Biso   1.000  C 
  C65      1.0000 4.20922  17.65722  13.44800  Biso   1.000  C 
  C66      1.0000 4.20922  9.23878  13.44800  Biso   1.000  C 
  C67      1.0000 22.68678  9.23878  13.44800  Biso   1.000  C 
  C68      1.0000 22.68678  17.65722  13.44800  Biso   1.000  C 
  C69      1.0000 0.00000  17.65722  17.65722  Biso   1.000  C 
  C70      1.0000 0.00000  17.65722  9.23878  Biso   1.000  C 
  C71      1.0000 0.00000  9.23878  9.23878  Biso   1.000  C 
  C72      1.0000 0.00000  9.23878  17.65722  Biso   1.000  C 
  C73      1.0000 17.65722  0.00000  17.65722  Biso   1.000  C 
  C74      1.0000 9.23878  0.00000  17.65722  Biso   1.000  C 
  C75      1.0000 9.23878  0.00000  9.23878  Biso   1.000  C 
  C76      1.0000 17.65722  0.00000  9.23878  Biso   1.000  C 
  C77      1.0000 17.65722  4.20922  13.44800  Biso   1.000  C 
  C78      1.0000 17.65722  22.68678  13.44800  Biso   1.000  C 
  C79      1.0000 9.23878  22.68678  13.44800  Biso   1.000  C 
  C80      1.0000 9.23878  4.20922  13.44800  Biso   1.000  C 
  C81      1.0000 13.44800  4.20922  17.65722  Biso   1.000  C 
  C82      1.0000 13.44800  4.20922  9.23878  Biso   1.000  C 
  C83      1.0000 13.44800  22.68678  9.23878  Biso   1.000  C 
  C84      1.0000 13.44800  22.68678  17.65722  Biso   1.000  C 
  C85      1.0000 17.65722  13.44800  4.20922  Biso   1.000  C 
  C86      1.0000 9.23878  13.44800  4.20922  Biso   1.000  C 
  C87      1.0000 9.23878  13.44800  22.68678  Biso   1.000  C 
  C88      1.0000 17.65722  13.44800  22.68678  Biso   1.000  C 
  C89      1.0000 17.65722  17.65722  0.00000  Biso   1.000  C 
  C90      1.0000 17.65722  9.23878  0.00000  Biso   1.000  C 
  C91      1.0000 9.23878  9.23878  0.00000  Biso   1.000  C 
  C92      1.0000 9.23878  17.65722  0.00000  Biso   1.000  C 
  C93      1.0000 13.44800  17.65722  4.20922  Biso   1.000  C 
  C94      1.0000 13.44800  17.65722  22.68678  Biso   1.000  C 
  C95      1.0000 13.44800  9.23878  22.68678  Biso   1.000  C 
  C96      1.0000 13.44800  9.23878  4.20922  Biso   1.000  C 
  C97      1.0000 5.53520  0.00000  3.89185  Biso   1.000  C 
  C98      1.0000 21.36080  0.00000  3.89185  Biso   1.000  C 
  C99      1.0000 21.36080  0.00000  23.00415  Biso   1.000  C 
  C100     1.0000 5.53520  0.00000  23.00415  Biso   1.000  C 
  C101     1.0000 3.89185  5.53520  0.00000  Biso   1.000  C 
  C102     1.0000 3.89185  21.36080  0.00000  Biso   1.000  C 
  C103     1.0000 23.00415  21.36080  0.00000  Biso   1.000  C 
  C104     1.0000 23.00415  5.53520  0.00000  Biso   1.000  C 
  C105     1.0000 0.00000  3.89185  5.53520  Biso   1.000  C 
  C106     1.0000 0.00000  3.89185  21.36080  Biso   1.000  C 
  C107     1.0000 0.00000  23.00415  21.36080  Biso   1.000  C 
  C108     1.0000 0.00000  23.00415  5.53520  Biso   1.000  C 
  C109     1.0000 0.00000  5.53520  23.00415  Biso   1.000  C 
  C110     1.0000 0.00000  21.36080  23.00415  Biso   1.000  C 
  C111     1.0000 0.00000  21.36080  3.89185  Biso   1.000  C 
  C112     1.0000 0.00000  5.53520  3.89185  Biso   1.000  C 
  C113     1.0000 5.53520  3.89185  0.00000  Biso   1.000  C 
  C114     1.0000 21.36080  3.89185  0.00000  Biso   1.000  C 
  C115     1.0000 21.36080  23.00415  0.00000  Biso   1.000  C 
  C116     1.0000 5.53520  23.00415  0.00000  Biso   1.000  C 
  C117     1.0000 3.89185  0.00000  21.36080  Biso   1.000  C 
  C118     1.0000 3.89185  0.00000  5.53520  Biso   1.000  C 
  C119     1.0000 23.00415  0.00000  5.53520  Biso   1.000  C 
  C120     1.0000 23.00415  0.00000  21.36080  Biso   1.000  C 
  C121     1.0000 5.53520  13.44800  17.33985  Biso   1.000  C 
  C122     1.0000 21.36080  13.44800  17.33985  Biso   1.000  C 
  C123     1.0000 21.36080  13.44800  9.55615  Biso   1.000  C 
  C124     1.0000 5.53520  13.44800  9.55615  Biso   1.000  C 
  C125     1.0000 3.89185  18.98320  13.44800  Biso   1.000  C 
  C126     1.0000 3.89185  7.91280  13.44800  Biso   1.000  C 
  C127     1.0000 23.00415  7.91280  13.44800  Biso   1.000  C 
  C128     1.0000 23.00415  18.98320  13.44800  Biso   1.000  C 
  C129     1.0000 0.00000  17.33985  18.98320  Biso   1.000  C 
  C130     1.0000 0.00000  17.33985  7.91280  Biso   1.000  C 
  C131     1.0000 0.00000  9.55615  7.91280  Biso   1.000  C 
  C132     1.0000 0.00000  9.55615  18.98320  Biso   1.000  C 
  C133     1.0000 0.00000  18.98320  9.55615  Biso   1.000  C 
  C134     1.0000 0.00000  7.91280  9.55615  Biso   1.000  C 
  C135     1.0000 0.00000  7.91280  17.33985  Biso   1.000  C 
  C136     1.0000 0.00000  18.98320  17.33985  Biso   1.000  C 
  C137     1.0000 5.53520  17.33985  13.44800  Biso   1.000  C 
  C138     1.0000 21.36080  17.33985  13.44800  Biso   1.000  C 
  C139     1.0000 21.36080  9.55615  13.44800  Biso   1.000  C 
  C140     1.0000 5.53520  9.55615  13.44800  Biso   1.000  C 
  C141     1.0000 3.89185  13.44800  7.91280  Biso   1.000  C 
  C142     1.0000 3.89185  13.44800  18.98320  Biso   1.000  C 
  C143     1.0000 23.00415  13.44800  18.98320  Biso   1.000  C 
  C144     1.0000 23.00415  13.44800  7.91280  Biso   1.000  C 
  C145     1.0000 18.98320  0.00000  17.33985  Biso   1.000  C 
  C146     1.0000 7.91280  0.00000  17.33985  Biso   1.000  C 
  C147     1.0000 7.91280  0.00000  9.55615  Biso   1.000  C 
  C148     1.0000 18.98320  0.00000  9.55615  Biso   1.000  C 
  C149     1.0000 17.33985  5.53520  13.44800  Biso   1.000  C 
  C150     1.0000 17.33985  21.36080  13.44800  Biso   1.000  C 
  C151     1.0000 9.55615  21.36080  13.44800  Biso   1.000  C 
  C152     1.0000 9.55615  5.53520  13.44800  Biso   1.000  C 
  C153     1.0000 13.44800  3.89185  18.98320  Biso   1.000  C 
  C154     1.0000 13.44800  3.89185  7.91280  Biso   1.000  C 
  C155     1.0000 13.44800  23.00415  7.91280  Biso   1.000  C 
  C156     1.0000 13.44800  23.00415  18.98320  Biso   1.000  C 
  C157     1.0000 13.44800  5.53520  9.55615  Biso   1.000  C 
  C158     1.0000 13.44800  21.36080  9.55615  Biso   1.000  C 
  C159     1.0000 13.44800  21.36080  17.33985  Biso   1.000  C 
  C160     1.0000 13.44800  5.53520  17.33985  Biso   1.000  C 
  C161     1.0000 18.98320  3.89185  13.44800  Biso   1.000  C 
  C162     1.0000 7.91280  3.89185  13.44800  Biso   1.000  C 
  C163     1.0000 7.91280  23.00415  13.44800  Biso   1.000  C 
  C164     1.0000 18.98320  23.00415  13.44800  Biso   1.000  C 
  C165     1.0000 17.33985  0.00000  7.91280  Biso   1.000  C 
  C166     1.0000 17.33985  0.00000  18.98320  Biso   1.000  C 
  C167     1.0000 9.55615  0.00000  18.98320  Biso   1.000  C 
  C168     1.0000 9.55615  0.00000  7.91280  Biso   1.000  C 
  C169     1.0000 18.98320  13.44800  3.89185  Biso   1.000  C 
  C170     1.0000 7.91280  13.44800  3.89185  Biso   1.000  C 
  C171     1.0000 7.91280  13.44800  23.00415  Biso   1.000  C 
  C172     1.0000 18.98320  13.44800  23.00415  Biso   1.000  C 
  C173     1.0000 17.33985  18.98320  0.00000  Biso   1.000  C 
  C174     1.0000 17.33985  7.91280  0.00000  Biso   1.000  C 
  C175     1.0000 9.55615  7.91280  0.00000  Biso   1.000  C 
  C176     1.0000 9.55615  18.98320  0.00000  Biso   1.000  C 
  C177     1.0000 13.44800  17.33985  5.53520  Biso   1.000  C 
  C178     1.0000 13.44800  17.33985  21.36080  Biso   1.000  C 
  C179     1.0000 13.44800  9.55615  21.36080  Biso   1.000  C 
  C180     1.0000 13.44800  9.55615  5.53520  Biso   1.000  C 
  C181     1.0000 13.44800  18.98320  23.00415  Biso   1.000  C 
  C182     1.0000 13.44800  7.91280  23.00415  Biso   1.000  C 
  C183     1.0000 13.44800  7.91280  3.89185  Biso   1.000  C 
  C184     1.0000 13.44800  18.98320  3.89185  Biso   1.000  C 
  C185     1.0000 18.98320  17.33985  0.00000  Biso   1.000  C 
  C186     1.0000 7.91280  17.33985  0.00000  Biso   1.000  C 
  C187     1.0000 7.91280  9.55615  0.00000  Biso   1.000  C 
  C188     1.0000 18.98320  9.55615  0.00000  Biso   1.000  C 
  C189     1.0000 17.33985  13.44800  21.36080  Biso   1.000  C 
  C190     1.0000 17.33985  13.44800  5.53520  Biso   1.000  C 
  C191     1.0000 9.55615  13.44800  5.53520  Biso   1.000  C 
  C192     1.0000 9.55615  13.44800  21.36080  Biso   1.000  C 
  H1       1.0000 5.77995  0.00000  2.99621  Biso   1.000  H 
  H2       1.0000 21.11605  0.00000  2.99621  Biso   1.000  H 
  H3       1.0000 21.11605  0.00000  23.89979  Biso   1.000  H 
  H4       1.0000 5.77995  0.00000  23.89979  Biso   1.000  H 
  H5       1.0000 2.99621  5.77995  0.00000  Biso   1.000  H 
  H6       1.0000 2.99621  21.11605  0.00000  Biso   1.000  H 
  H7       1.0000 23.89979  21.11605  0.00000  Biso   1.000  H 
  H8       1.0000 23.89979  5.77995  0.00000  Biso   1.000  H 
  H9       1.0000 0.00000  2.99621  5.77995  Biso   1.000  H 
  H10      1.0000 0.00000  2.99621  21.11605  Biso   1.000  H 
  H11      1.0000 0.00000  23.89979  21.11605  Biso   1.000  H 
  H12      1.0000 0.00000  23.89979  5.77995  Biso   1.000  H 
  H13      1.0000 0.00000  5.77995  23.89979  Biso   1.000  H 
  H14      1.0000 0.00000  21.11605  23.89979  Biso   1.000  H 
  H15      1.0000 0.00000  21.11605  2.99621  Biso   1.000  H 
  H16      1.0000 0.00000  5.77995  2.99621  Biso   1.000  H 
  H17      1.0000 5.77995  2.99621  0.00000  Biso   1.000  H 
  H18      1.0000 21.11605  2.99621  0.00000  Biso   1.000  H 
  H19      1.0000 21.11605  23.89979  0.00000  Biso   1.000  H 
  H20      1.0000 5.77995  23.89979  0.00000  Biso   1.000  H 
  H21      1.0000 2.99621  0.00000  21.11605  Biso   1.000  H 
  H22      1.0000 2.99621  0.00000  5.77995  Biso   1.000  H 
  H23      1.0000 23.89979  0.00000  5.77995  Biso   1.000  H 
  H24      1.0000 23.89979  0.00000  21.11605  Biso   1.000  H 
  H25      1.0000 5.77995  13.44800  16.44421  Biso   1.000  H 
  H26      1.0000 21.11605  13.44800  16.44421  Biso   1.000  H 
  H27      1.0000 21.11605  13.44800  10.45179  Biso   1.000  H 
  H28      1.0000 5.77995  13.44800  10.45179  Biso   1.000  H 
  H29      1.0000 2.99621  19.22795  13.44800  Biso   1.000  H 
  H30      1.0000 2.99621  7.66805  13.44800  Biso   1.000  H 
  H31      1.0000 23.89979  7.66805  13.44800  Biso   1.000  H 
  H32      1.0000 23.89979  19.22795  13.44800  Biso   1.000  H 
  H33      1.0000 0.00000  16.44421  19.22795  Biso   1.000  H 
  H34      1.0000 0.00000  16.44421  7.66805  Biso   1.000  H 
  H35      1.0000 0.00000  10.45179  7.66805  Biso   1.000  H 
  H36      1.0000 0.00000  10.45179  19.22795  Biso   1.000  H 
  H37      1.0000 0.00000  19.22795  10.45179  Biso   1.000  H 
  H38      1.0000 0.00000  7.66805  10.45179  Biso   1.000  H 
  H39      1.0000 0.00000  7.66805  16.44421  Biso   1.000  H 
  H40      1.0000 0.00000  19.22795  16.44421  Biso   1.000  H 
  H41      1.0000 5.77995  16.44421  13.44800  Biso   1.000  H 
  H42      1.0000 21.11605  16.44421  13.44800  Biso   1.000  H 
  H43      1.0000 21.11605  10.45179  13.44800  Biso   1.000  H 
  H44      1.0000 5.77995  10.45179  13.44800  Biso   1.000  H 
  H45      1.0000 2.99621  13.44800  7.66805  Biso   1.000  H 
  H46      1.0000 2.99621  13.44800  19.22795  Biso   1.000  H 
  H47      1.0000 23.89979  13.44800  19.22795  Biso   1.000  H 
  H48      1.0000 23.89979  13.44800  7.66805  Biso   1.000  H 
  H49      1.0000 19.22795  0.00000  16.44421  Biso   1.000  H 
  H50      1.0000 7.66805  0.00000  16.44421  Biso   1.000  H 
  H51      1.0000 7.66805  0.00000  10.45179  Biso   1.000  H 
  H52      1.0000 19.22795  0.00000  10.45179  Biso   1.000  H 
  H53      1.0000 16.44421  5.77995  13.44800  Biso   1.000  H 
  H54      1.0000 16.44421  21.11605  13.44800  Biso   1.000  H 
  H55      1.0000 10.45179  21.11605  13.44800  Biso   1.000  H 
  H56      1.0000 10.45179  5.77995  13.44800  Biso   1.000  H 
  H57      1.0000 13.44800  2.99621  19.22795  Biso   1.000  H 
  H58      1.0000 13.44800  2.99621  7.66805  Biso   1.000  H 
  H59      1.0000 13.44800  23.89979  7.66805  Biso   1.000  H 
  H60      1.0000 13.44800  23.89979  19.22795  Biso   1.000  H 
  H61      1.0000 13.44800  5.77995  10.45179  Biso   1.000  H 
  H62      1.0000 13.44800  21.11605  10.45179  Biso   1.000  H 
  H63      1.0000 13.44800  21.11605  16.44421  Biso   1.000  H 
  H64      1.0000 13.44800  5.77995  16.44421  Biso   1.000  H 
  H65      1.0000 19.22795  2.99621  13.44800  Biso   1.000  H 
  H66      1.0000 7.66805  2.99621  13.44800  Biso   1.000  H 
  H67      1.0000 7.66805  23.89979  13.44800  Biso   1.000  H 
  H68      1.0000 19.22795  23.89979  13.44800  Biso   1.000  H 
  H69      1.0000 16.44421  0.00000  7.66805  Biso   1.000  H 
  H70      1.0000 16.44421  0.00000  19.22795  Biso   1.000  H 
  H71      1.0000 10.45179  0.00000  19.22795  Biso   1.000  H 
  H72      1.0000 10.45179  0.00000  7.66805  Biso   1.000  H 
  H73      1.0000 19.22795  13.44800  2.99621  Biso   1.000  H 
  H74      1.0000 7.66805  13.44800  2.99621  Biso   1.000  H 
  H75      1.0000 7.66805  13.44800  23.89979  Biso   1.000  H 
  H76      1.0000 19.22795  13.44800  23.89979  Biso   1.000  H 
  H77      1.0000 16.44421  19.22795  0.00000  Biso   1.000  H 
  H78      1.0000 16.44421  7.66805  0.00000  Biso   1.000  H 
  H79      1.0000 10.45179  7.66805  0.00000  Biso   1.000  H 
  H80      1.0000 10.45179  19.22795  0.00000  Biso   1.000  H 
  H81      1.0000 13.44800  16.44421  5.77995  Biso   1.000  H 
  H82      1.0000 13.44800  16.44421  21.11605  Biso   1.000  H 
  H83      1.0000 13.44800  10.45179  21.11605  Biso   1.000  H 
  H84      1.0000 13.44800  10.45179  5.77995  Biso   1.000  H 
  H85      1.0000 13.44800  19.22795  23.89979  Biso   1.000  H 
  H86      1.0000 13.44800  7.66805  23.89979  Biso   1.000  H 
  H87      1.0000 13.44800  7.66805  2.99621  Biso   1.000  H 
  H88      1.0000 13.44800  19.22795  2.99621  Biso   1.000  H 
  H89      1.0000 19.22795  16.44421  0.00000  Biso   1.000  H 
  H90      1.0000 7.66805  16.44421  0.00000  Biso   1.000  H 
  H91      1.0000 7.66805  10.45179  0.00000  Biso   1.000  H 
  H92      1.0000 19.22795  10.45179  0.00000  Biso   1.000  H 
  H93      1.0000 16.44421  13.44800  21.11605  Biso   1.000  H 
  H94      1.0000 16.44421  13.44800  5.77995  Biso   1.000  H 
  H95      1.0000 10.45179  13.44800  5.77995  Biso   1.000  H 
  H96      1.0000 10.45179  13.44800  21.11605  Biso   1.000  H 
  C193     1.0000 6.50883  0.00000  4.82783  Biso   1.000  C 
  C194     1.0000 20.38717  0.00000  4.82783  Biso   1.000  C 
  C195     1.0000 20.38717  0.00000  22.06817  Biso   1.000  C 
  C196     1.0000 6.50883  0.00000  22.06817  Biso   1.000  C 
  C197     1.0000 4.82783  6.50883  0.00000  Biso   1.000  C 
  C198     1.0000 4.82783  20.38717  0.00000  Biso   1.000  C 
  C199     1.0000 22.06817  20.38717  0.00000  Biso   1.000  C 
  C200     1.0000 22.06817  6.50883  0.00000  Biso   1.000  C 
  C201     1.0000 0.00000  4.82783  6.50883  Biso   1.000  C 
  C202     1.0000 0.00000  4.82783  20.38717  Biso   1.000  C 
  C203     1.0000 0.00000  22.06817  20.38717  Biso   1.000  C 
  C204     1.0000 0.00000  22.06817  6.50883  Biso   1.000  C 
  C205     1.0000 0.00000  6.50883  22.06817  Biso   1.000  C 
  C206     1.0000 0.00000  20.38717  22.06817  Biso   1.000  C 
  C207     1.0000 0.00000  20.38717  4.82783  Biso   1.000  C 
  C208     1.0000 0.00000  6.50883  4.82783  Biso   1.000  C 
  C209     1.0000 6.50883  4.82783  0.00000  Biso   1.000  C 
  C210     1.0000 20.38717  4.82783  0.00000  Biso   1.000  C 
  C211     1.0000 20.38717  22.06817  0.00000  Biso   1.000  C 
  C212     1.0000 6.50883  22.06817  0.00000  Biso   1.000  C 
  C213     1.0000 4.82783  0.00000  20.38717  Biso   1.000  C 
  C214     1.0000 4.82783  0.00000  6.50883  Biso   1.000  C 
  C215     1.0000 22.06817  0.00000  6.50883  Biso   1.000  C 
  C216     1.0000 22.06817  0.00000  20.38717  Biso   1.000  C 
  C217     1.0000 6.50883  13.44800  18.27583  Biso   1.000  C 
  C218     1.0000 20.38717  13.44800  18.27583  Biso   1.000  C 
  C219     1.0000 20.38717  13.44800  8.62017  Biso   1.000  C 
  C220     1.0000 6.50883  13.44800  8.62017  Biso   1.000  C 
  C221     1.0000 4.82783  19.95683  13.44800  Biso   1.000  C 
  C222     1.0000 4.82783  6.93917  13.44800  Biso   1.000  C 
  C223     1.0000 22.06817  6.93917  13.44800  Biso   1.000  C 
  C224     1.0000 22.06817  19.95683  13.44800  Biso   1.000  C 
  C225     1.0000 0.00000  18.27583  19.95683  Biso   1.000  C 
  C226     1.0000 0.00000  18.27583  6.93917  Biso   1.000  C 
  C227     1.0000 0.00000  8.62017  6.93917  Biso   1.000  C 
  C228     1.0000 0.00000  8.62017  19.95683  Biso   1.000  C 
  C229     1.0000 0.00000  19.95683  8.62017  Biso   1.000  C 
  C230     1.0000 0.00000  6.93917  8.62017  Biso   1.000  C 
  C231     1.0000 0.00000  6.93917  18.27583  Biso   1.000  C 
  C232     1.0000 0.00000  19.95683  18.27583  Biso   1.000  C 
  C233     1.0000 6.50883  18.27583  13.44800  Biso   1.000  C 
  C234     1.0000 20.38717  18.27583  13.44800  Biso   1.000  C 
  C235     1.0000 20.38717  8.62017  13.44800  Biso   1.000  C 
  C236     1.0000 6.50883  8.62017  13.44800  Biso   1.000  C 
  C237     1.0000 4.82783  13.44800  6.93917  Biso   1.000  C 
  C238     1.0000 4.82783  13.44800  19.95683  Biso   1.000  C 
  C239     1.0000 22.06817  13.44800  19.95683  Biso   1.000  C 
  C240     1.0000 22.06817  13.44800  6.93917  Biso   1.000  C 
  C241     1.0000 19.95683  0.00000  18.27583  Biso   1.000  C 
  C242     1.0000 6.93917  0.00000  18.27583  Biso   1.000  C 
  C243     1.0000 6.93917  0.00000  8.62017  Biso   1.000  C 
  C244     1.0000 19.95683  0.00000  8.62017  Biso   1.000  C 
  C245     1.0000 18.27583  6.50883  13.44800  Biso   1.000  C 
  C246     1.0000 18.27583  20.38717  13.44800  Biso   1.000  C 
  C247     1.0000 8.62017  20.38717  13.44800  Biso   1.000  C 
  C248     1.0000 8.62017  6.50883  13.44800  Biso   1.000  C 
  C249     1.0000 13.44800  4.82783  19.95683  Biso   1.000  C 
  C250     1.0000 13.44800  4.82783  6.93917  Biso   1.000  C 
  C251     1.0000 13.44800  22.06817  6.93917  Biso   1.000  C 
  C252     1.0000 13.44800  22.06817  19.95683  Biso   1.000  C 
  C253     1.0000 13.44800  6.50883  8.62017  Biso   1.000  C 
  C254     1.0000 13.44800  20.38717  8.62017  Biso   1.000  C 
  C255     1.0000 13.44800  20.38717  18.27583  Biso   1.000  C 
  C256     1.0000 13.44800  6.50883  18.27583  Biso   1.000  C 
  C257     1.0000 19.95683  4.82783  13.44800  Biso   1.000  C 
  C258     1.0000 6.93917  4.82783  13.44800  Biso   1.000  C 
  C259     1.0000 6.93917  22.06817  13.44800  Biso   1.000  C 
  C260     1.0000 19.95683  22.06817  13.44800  Biso   1.000  C 
  C261     1.0000 18.27583  0.00000  6.93917  Biso   1.000  C 
  C262     1.0000 18.27583  0.00000  19.95683  Biso   1.000  C 
  C263     1.0000 8.62017  0.00000  19.95683  Biso   1.000  C 
  C264     1.0000 8.62017  0.00000  6.93917  Biso   1.000  C 
  C265     1.0000 19.95683  13.44800  4.82783  Biso   1.000  C 
  C266     1.0000 6.93917  13.44800  4.82783  Biso   1.000  C 
  C267     1.0000 6.93917  13.44800  22.06817  Biso   1.000  C 
  C268     1.0000 19.95683  13.44800  22.06817  Biso   1.000  C 
  C269     1.0000 18.27583  19.95683  0.00000  Biso   1.000  C 
  C270     1.0000 18.27583  6.93917  0.00000  Biso   1.000  C 
  C271     1.0000 8.62017  6.93917  0.00000  Biso   1.000  C 
  C272     1.0000 8.62017  19.95683  0.00000  Biso   1.000  C 
  C273     1.0000 13.44800  18.27583  6.50883  Biso   1.000  C 
  C274     1.0000 13.44800  18.27583  20.38717  Biso   1.000  C 
  C275     1.0000 13.44800  8.62017  20.38717  Biso   1.000  C 
  C276     1.0000 13.44800  8.62017  6.50883  Biso   1.000  C 
  C277     1.0000 13.44800  19.95683  22.06817  Biso   1.000  C 
  C278     1.0000 13.44800  6.93917  22.06817  Biso   1.000  C 
  C279     1.0000 13.44800  6.93917  4.82783  Biso   1.000  C 
  C280     1.0000 13.44800  19.95683  4.82783  Biso   1.000  C 
  C281     1.0000 19.95683  18.27583  0.00000  Biso   1.000  C 
  C282     1.0000 6.93917  18.27583  0.00000  Biso   1.000  C 
  C283     1.0000 6.93917  8.62017  0.00000  Biso   1.000  C 
  C284     1.0000 19.95683  8.62017  0.00000  Biso   1.000  C 
  C285     1.0000 18.27583  13.44800  20.38717  Biso   1.000  C 
  C286     1.0000 18.27583  13.44800  6.50883  Biso   1.000  C 
  C287     1.0000 8.62017  13.44800  6.50883  Biso   1.000  C 
  C288     1.0000 8.62017  13.44800  20.38717  Biso   1.000  C 
  H97      1.0000 7.39909  0.00000  4.55887  Biso   1.000  H 
  H98      1.0000 19.49691  0.00000  4.55887  Biso   1.000  H 
  H99      1.0000 19.49691  0.00000  22.33713  Biso   1.000  H 
  H100     1.0000 7.39909  0.00000  22.33713  Biso   1.000  H 
  H101     1.0000 4.55887  7.39909  0.00000  Biso   1.000  H 
  H102     1.0000 4.55887  19.49691  0.00000  Biso   1.000  H 
  H103     1.0000 22.33713  19.49691  0.00000  Biso   1.000  H 
  H104     1.0000 22.33713  7.39909  0.00000  Biso   1.000  H 
  H105     1.0000 0.00000  4.55887  7.39909  Biso   1.000  H 
  H106     1.0000 0.00000  4.55887  19.49691  Biso   1.000  H 
  H107     1.0000 0.00000  22.33713  19.49691  Biso   1.000  H 
  H108     1.0000 0.00000  22.33713  7.39909  Biso   1.000  H 
  H109     1.0000 0.00000  7.39909  22.33713  Biso   1.000  H 
  H110     1.0000 0.00000  19.49691  22.33713  Biso   1.000  H 
  H111     1.0000 0.00000  19.49691  4.55887  Biso   1.000  H 
  H112     1.0000 0.00000  7.39909  4.55887  Biso   1.000  H 
  H113     1.0000 7.39909  4.55887  0.00000  Biso   1.000  H 
  H114     1.0000 19.49691  4.55887  0.00000  Biso   1.000  H 
  H115     1.0000 19.49691  22.33713  0.00000  Biso   1.000  H 
  H116     1.0000 7.39909  22.33713  0.00000  Biso   1.000  H 
  H117     1.0000 4.55887  0.00000  19.49691  Biso   1.000  H 
  H118     1.0000 4.55887  0.00000  7.39909  Biso   1.000  H 
  H119     1.0000 22.33713  0.00000  7.39909  Biso   1.000  H 
  H120     1.0000 22.33713  0.00000  19.49691  Biso   1.000  H 
  H121     1.0000 7.39909  13.44800  18.00687  Biso   1.000  H 
  H122     1.0000 19.49691  13.44800  18.00687  Biso   1.000  H 
  H123     1.0000 19.49691  13.44800  8.88913  Biso   1.000  H 
  H124     1.0000 7.39909  13.44800  8.88913  Biso   1.000  H 
  H125     1.0000 4.55887  20.84709  13.44800  Biso   1.000  H 
  H126     1.0000 4.55887  6.04891  13.44800  Biso   1.000  H 
  H127     1.0000 22.33713  6.04891  13.44800  Biso   1.000  H 
  H128     1.0000 22.33713  20.84709  13.44800  Biso   1.000  H 
  H129     1.0000 0.00000  18.00687  20.84709  Biso   1.000  H 
  H130     1.0000 0.00000  18.00687  6.04891  Biso   1.000  H 
  H131     1.0000 0.00000  8.88913  6.04891  Biso   1.000  H 
  H132     1.0000 0.00000  8.88913  20.84709  Biso   1.000  H 
  H133     1.0000 0.00000  20.84709  8.88913  Biso   1.000  H 
  H134     1.0000 0.00000  6.04891  8.88913  Biso   1.000  H 
  H135     1.0000 0.00000  6.04891  18.00687  Biso   1.000  H 
  H136     1.0000 0.00000  20.84709  18.00687  Biso   1.000  H 
  H137     1.0000 7.39909  18.00687  13.44800  Biso   1.000  H 
  H138     1.0000 19.49691  18.00687  13.44800  Biso   1.000  H 
  H139     1.0000 19.49691  8.88913  13.44800  Biso   1.000  H 
  H140     1.0000 7.39909  8.88913  13.44800  Biso   1.000  H 
  H141     1.0000 4.55887  13.44800  6.04891  Biso   1.000  H 
  H142     1.0000 4.55887  13.44800  20.84709  Biso   1.000  H 
  H143     1.0000 22.33713  13.44800  20.84709  Biso   1.000  H 
  H144     1.0000 22.33713  13.44800  6.04891  Biso   1.000  H 
  H145     1.0000 20.84709  0.00000  18.00687  Biso   1.000  H 
  H146     1.0000 6.04891  0.00000  18.00687  Biso   1.000  H 
  H147     1.0000 6.04891  0.00000  8.88913  Biso   1.000  H 
  H148     1.0000 20.84709  0.00000  8.88913  Biso   1.000  H 
  H149     1.0000 18.00687  7.39909  13.44800  Biso   1.000  H 
  H150     1.0000 18.00687  19.49691  13.44800  Biso   1.000  H 
  H151     1.0000 8.88913  19.49691  13.44800  Biso   1.000  H 
  H152     1.0000 8.88913  7.39909  13.44800  Biso   1.000  H 
  H153     1.0000 13.44800  4.55887  20.84709  Biso   1.000  H 
  H154     1.0000 13.44800  4.55887  6.04891  Biso   1.000  H 
  H155     1.0000 13.44800  22.33713  6.04891  Biso   1.000  H 
  H156     1.0000 13.44800  22.33713  20.84709  Biso   1.000  H 
  H157     1.0000 13.44800  7.39909  8.88913  Biso   1.000  H 
  H158     1.0000 13.44800  19.49691  8.88913  Biso   1.000  H 
  H159     1.0000 13.44800  19.49691  18.00687  Biso   1.000  H 
  H160     1.0000 13.44800  7.39909  18.00687  Biso   1.000  H 
  H161     1.0000 20.84709  4.55887  13.44800  Biso   1.000  H 
  H162     1.0000 6.04891  4.55887  13.44800  Biso   1.000  H 
  H163     1.0000 6.04891  22.33713  13.44800  Biso   1.000  H 
  H164     1.0000 20.84709  22.33713  13.44800  Biso   1.000  H 
  H165     1.0000 18.00687  0.00000  6.04891  Biso   1.000  H 
  H166     1.0000 18.00687  0.00000  20.84709  Biso   1.000  H 
  H167     1.0000 8.88913  0.00000  20.84709  Biso   1.000  H 
  H168     1.0000 8.88913  0.00000  6.04891  Biso   1.000  H 
  H169     1.0000 20.84709  13.44800  4.55887  Biso   1.000  H 
  H170     1.0000 6.04891  13.44800  4.55887  Biso   1.000  H 
  H171     1.0000 6.04891  13.44800  22.33713  Biso   1.000  H 
  H172     1.0000 20.84709  13.44800  22.33713  Biso   1.000  H 
  H173     1.0000 18.00687  20.84709  0.00000  Biso   1.000  H 
  H174     1.0000 18.00687  6.04891  0.00000  Biso   1.000  H 
  H175     1.0000 8.88913  6.04891  0.00000  Biso   1.000  H 
  H176     1.0000 8.88913  20.84709  0.00000  Biso   1.000  H 
  H177     1.0000 13.44800  18.00687  7.39909  Biso   1.000  H 
  H178     1.0000 13.44800  18.00687  19.49691  Biso   1.000  H 
  H179     1.0000 13.44800  8.88913  19.49691  Biso   1.000  H 
  H180     1.0000 13.44800  8.88913  7.39909  Biso   1.000  H 
  H181     1.0000 13.44800  20.84709  22.33713  Biso   1.000  H 
  H182     1.0000 13.44800  6.04891  22.33713  Biso   1.000  H 
  H183     1.0000 13.44800  6.04891  4.55887  Biso   1.000  H 
  H184     1.0000 13.44800  20.84709  4.55887  Biso   1.000  H 
  H185     1.0000 20.84709  18.00687  0.00000  Biso   1.000  H 
  H186     1.0000 6.04891  18.00687  0.00000  Biso   1.000  H 
  H187     1.0000 6.04891  8.88913  0.00000  Biso   1.000  H 
  H188     1.0000 20.84709  8.88913  0.00000  Biso   1.000  H 
  H189     1.0000 18.00687  13.44800  19.49691  Biso   1.000  H 
  H190     1.0000 18.00687  13.44800  7.39909  Biso   1.000  H 
  H191     1.0000 8.88913  13.44800  7.39909  Biso   1.000  H 
  H192     1.0000 8.88913  13.44800  19.49691  Biso   1.000  H 
  C289     1.0000 6.20491  0.00000  6.20491  Biso   1.000  C 
  C290     1.0000 20.69109  0.00000  6.20491  Biso   1.000  C 
  C291     1.0000 20.69109  0.00000  20.69109  Biso   1.000  C 
  C292     1.0000 6.20491  0.00000  20.69109  Biso   1.000  C 
  C293     1.0000 6.20491  6.20491  0.00000  Biso   1.000  C 
  C294     1.0000 6.20491  20.69109  0.00000  Biso   1.000  C 
  C295     1.0000 20.69109  20.69109  0.00000  Biso   1.000  C 
  C296     1.0000 20.69109  6.20491  0.00000  Biso   1.000  C 
  C297     1.0000 0.00000  6.20491  6.20491  Biso   1.000  C 
  C298     1.0000 0.00000  6.20491  20.69109  Biso   1.000  C 
  C299     1.0000 0.00000  20.69109  20.69109  Biso   1.000  C 
  C300     1.0000 0.00000  20.69109  6.20491  Biso   1.000  C 
  C301     1.0000 6.20491  13.44800  19.65291  Biso   1.000  C 
  C302     1.0000 20.69109  13.44800  19.65291  Biso   1.000  C 
  C303     1.0000 20.69109  13.44800  7.24309  Biso   1.000  C 
  C304     1.0000 6.20491  13.44800  7.24309  Biso   1.000  C 
  C305     1.0000 6.20491  19.65291  13.44800  Biso   1.000  C 
  C306     1.0000 6.20491  7.24309  13.44800  Biso   1.000  C 
  C307     1.0000 20.69109  7.24309  13.44800  Biso   1.000  C 
  C308     1.0000 20.69109  19.65291  13.44800  Biso   1.000  C 
  C309     1.0000 0.00000  19.65291  19.65291  Biso   1.000  C 
  C310     1.0000 0.00000  19.65291  7.24309  Biso   1.000  C 
  C311     1.0000 0.00000  7.24309  7.24309  Biso   1.000  C 
  C312     1.0000 0.00000  7.24309  19.65291  Biso   1.000  C 
  C313     1.0000 19.65291  0.00000  19.65291  Biso   1.000  C 
  C314     1.0000 7.24309  0.00000  19.65291  Biso   1.000  C 
  C315     1.0000 7.24309  0.00000  7.24309  Biso   1.000  C 
  C316     1.0000 19.65291  0.00000  7.24309  Biso   1.000  C 
  C317     1.0000 19.65291  6.20491  13.44800  Biso   1.000  C 
  C318     1.0000 19.65291  20.69109  13.44800  Biso   1.000  C 
  C319     1.0000 7.24309  20.69109  13.44800  Biso   1.000  C 
  C320     1.0000 7.24309  6.20491  13.44800  Biso   1.000  C 
  C321     1.0000 13.44800  6.20491  19.65291  Biso   1.000  C 
  C322     1.0000 13.44800  6.20491  7.24309  Biso   1.000  C 
  C323     1.0000 13.44800  20.69109  7.24309  Biso   1.000  C 
  C324     1.0000 13.44800  20.69109  19.65291  Biso   1.000  C 
  C325     1.0000 19.65291  13.44800  6.20491  Biso   1.000  C 
  C326     1.0000 7.24309  13.44800  6.20491  Biso   1.000  C 
  C327     1.0000 7.24309  13.44800  20.69109  Biso   1.000  C 
  C328     1.0000 19.65291  13.44800  20.69109  Biso   1.000  C 
  C329     1.0000 19.65291  19.65291  0.00000  Biso   1.000  C 
  C330     1.0000 19.65291  7.24309  0.00000  Biso   1.000  C 
  C331     1.0000 7.24309  7.24309  0.00000  Biso   1.000  C 
  C332     1.0000 7.24309  19.65291  0.00000  Biso   1.000  C 
  C333     1.0000 13.44800  19.65291  6.20491  Biso   1.000  C 
  C334     1.0000 13.44800  19.65291  20.69109  Biso   1.000  C 
  C335     1.0000 13.44800  7.24309  20.69109  Biso   1.000  C 
  C336     1.0000 13.44800  7.24309  6.20491  Biso   1.000  C 
